version 2
run plain-0-20250601-23:28:09-26416
attr configname plain
attr datetime 20250601-23:28:09
attr experiment plain
attr inifile omnetpp.ini
attr iterationvars ""
attr iterationvarsf ""
attr measurement ""
attr network Scenario
attr processid 26416
attr repetition 0
attr replication #0
attr resultdir results
attr runnumber 0
attr seedset 0
param **.debug true
param **.coreDebug false
param *.node[*].numApps 1
param *.node[*].app[0].typename "\"v2v.veins_inet.VeinsInetSampleApplication\""
param *.node[*].app[0].interface "\"wlan0\""
param *.node[*].wlan[0].opMode "\"p\""
param *.node[*].wlan[0].radio.typename "\"Ieee80211DimensionalRadio\""
param *.node[*].wlan[0].radio.bandName "\"5.9 GHz\""
param *.node[*].wlan[0].radio.channelNumber 3
param *.node[*].wlan[0].radio.transmitter.power 23dBm
param *.node[*].wlan[0].radio.bandwidth "10 MHz"
param *.node[*].wlan[*].radio.antenna.mobility.typename "\"AttachedMobility\""
param *.node[*].wlan[*].radio.antenna.mobility.mobilityModule "\"^.^.^.^.mobility\""
param *.node[*].wlan[*].radio.antenna.mobility.offsetX -2.5m
param *.node[*].wlan[*].radio.antenna.mobility.offsetZ 1.5m
param *.node[*].wlan[*].radio.antenna.mobility.constraintAreaMinX 0m
param *.node[*].wlan[*].radio.antenna.mobility.constraintAreaMaxX 0m
param *.node[*].wlan[*].radio.antenna.mobility.constraintAreaMinY 0m
param *.node[*].wlan[*].radio.antenna.mobility.constraintAreaMaxY 0m
param *.node[*].wlan[*].radio.antenna.mobility.constraintAreaMinZ 0m
param *.node[*].wlan[*].radio.antenna.mobility.constraintAreaMaxZ 0m
param *.node[*].ipv4.configurator.typename "\"HostAutoConfigurator\""
param *.node[*].ipv4.configurator.interfaces "\"wlan0\""
param *.node[*].ipv4.configurator.mcastGroups "\"224.0.0.1\""
param *.node[*].mobility.typename "\"VeinsInetMobility\""
param *.manager.updateInterval 0.1s
param *.manager.host "\"localhost\""
param *.manager.port 9999
param *.manager.autoShutdown true
param *.manager.launchConfig "xmldoc(\"map.launchd.xml\")"
param *.manager.moduleType "\"v2v.veins_inet.VeinsInetCar\""
param *.physicalEnvironment.config "xmldoc(\"obstacles.xml\")"
param *.radioMedium.obstacleLoss.typename "\"IdealObstacleLoss\""
param *.radioMedium.typename "\"Ieee80211DimensionalRadioMedium\""
param *.radioMedium.backgroundNoise.power -110dBm
param *.radioMedium.mediumLimitCache.carrierFrequency 5.9GHz
param *.radioMedium.propagation.typename "\"ConstantSpeedPropagation\""
param *.radioMedium.pathLoss.typename "\"TwoRayGroundReflection\""
param *.radioMedium.pathLoss.alpha 2.0
param *.radioMedium.communicationRange 300m
param *.radioMedium.interferenceRange 400m
param *.radioMedium.detectionRange 500m
param *.node[*].wlan[0].radio.transmitter.power 23dBm
param *.node[*].wlan[0].radio.receiver.sensitivity -95dBm
param *.node[*].wlan[0].radio.receiver.energyDetection -95dBm
param *.node[*].wlan[0].radio.receiver.snirThreshold 4dB
param *.node[*].wlan[0].radio.antenna.typename "\"IsotropicAntenna\""
param *.node[*].wlan[0].radio.antenna.gain 2.15dB
param *.node[*].wlan[0].mac.typename "\"Ieee80211Mac\""
param *.node[*].wlan[0].mac.dcf.channelAccess.typename "\"Ieee80211DcfChannelAccess\""
param *.node[*].wlan[0].mac.dcf.channelAccess.cwMin 15
param *.node[*].wlan[0].mac.dcf.channelAccess.cwMax 1023
param *.node[*].wlan[0].mac.dcf.channelAccess.aifsn 2
param *.node[*].wlan[0].mac.dcf.channelAccess.slotTime 13us
param *.node[*].wlan[0].mac.dcf.channelAccess.sifsTime 32us
param *.node[*].wlan[0].mac.rateSelection.dataRate 6Mbps

scalar Scenario.node[16].lo[0].lo rcvdPkFromHl:count 1
attr interpolationmode none
attr source packetReceivedFromUpper
attr title "packets received from higher layer, count"
scalar Scenario.node[16].lo[0].lo rcvdPkFromHl:sum(packetBytes) 128
attr interpolationmode none
attr source packetReceivedFromUpper
attr title "packets received from higher layer, sum(packetBytes)"
scalar Scenario.node[16].lo[0].lo passedUpPk:count 1
attr interpolationmode none
attr source packetSentToUpper
attr title "packets passed to higher layer, count"
scalar Scenario.node[16].lo[0].lo passedUpPk:sum(packetBytes) 128
attr interpolationmode none
attr source packetSentToUpper
attr title "packets passed to higher layer, sum(packetBytes)"
scalar Scenario.node[16].wlan[0].mac.dcf.channelAccess.pendingQueue packetPopped:count 1
attr interpolationmode none
attr title "packet popped, count"
scalar Scenario.node[16].wlan[0].mac.dcf.channelAccess.pendingQueue packetPopped:sum(packetBytes) 158
attr interpolationmode none
attr title "packet popped, sum(packetBytes)"
statistic Scenario.node[16].wlan[0].mac.dcf.channelAccess.pendingQueue queueingTime:histogram
field count 1
field mean 0.000916840518
field stddev nan
field min 0.000916840518
field max 0.000916840518
field sum 0.000916840518
field sqrsum 8.4059653544651e-007
attr interpolationmode none
attr source queueingTime(packetPopped)
attr title "queueing times, histogram"
attr unit s
bin	-inf	0
bin	0	1
bin	0.01	0
bin	0.02	0
bin	0.03	0
bin	0.04	0
bin	0.05	0
bin	0.06	0
bin	0.07	0
bin	0.08	0
bin	0.09	0
bin	0.1	0
bin	0.11	0
bin	0.12	0
bin	0.13	0
bin	0.14	0
bin	0.15	0
bin	0.16	0
bin	0.17	0
bin	0.18	0
bin	0.19	0
bin	0.2	0
bin	0.21	0
bin	0.22	0
bin	0.23	0
bin	0.24	0
bin	0.25	0
bin	0.26	0
bin	0.27	0
bin	0.28	0
bin	0.29	0
bin	0.3	0
bin	0.31	0
bin	0.32	0
bin	0.33	0
bin	0.34	0
bin	0.35	0
bin	0.36	0
bin	0.37	0
bin	0.38	0
bin	0.39	0
bin	0.4	0
bin	0.41	0
bin	0.42	0
bin	0.43	0
bin	0.44	0
bin	0.45	0
bin	0.46	0
bin	0.47	0
bin	0.48	0
bin	0.49	0
bin	0.5	0
bin	0.51	0
scalar Scenario.node[16].wlan[0].mac.dcf.channelAccess.pendingQueue queueLength:max 1
attr interpolationmode sample-hold
attr source "count(packetPushed) - count(packetPopped) - count(packetRemoved) - count(packetDropped)"
attr title "queue length, max"
scalar Scenario.node[16].wlan[0].mac.dcf.channelAccess.pendingQueue queueLength:timeavg 7.5772919825647e-005
attr interpolationmode sample-hold
attr source "count(packetPushed) - count(packetPopped) - count(packetRemoved) - count(packetDropped)"
attr title "queue length, timeavg"
scalar Scenario.node[16].wlan[0].mac.dcf.channelAccess.pendingQueue packetPushed:count 1
attr interpolationmode none
attr title "packet pushed, count"
scalar Scenario.node[16].wlan[0].mac.dcf.channelAccess.pendingQueue packetPushed:sum(packetBytes) 158
attr interpolationmode none
attr title "packet pushed, sum(packetBytes)"
scalar Scenario.node[16].wlan[0].mac.dcf.channelAccess.pendingQueue packetDropQueueOverflow:count 0
attr interpolationmode none
attr source packetDropReasonIsQueueOverflow(packetDropped)
attr title "packet drops: queue overflow, count"
scalar Scenario.node[16].wlan[0].mac.dcf.channelAccess.pendingQueue packetDropQueueOverflow:sum(packetBytes) 0
attr interpolationmode none
attr source packetDropReasonIsQueueOverflow(packetDropped)
attr title "packet drops: queue overflow, sum(packetBytes)"
scalar Scenario.node[16].wlan[0].mac.dcf.channelAccess.pendingQueue packetRemoved:count 0
attr interpolationmode none
attr title "packets removed, count"
scalar Scenario.node[16].wlan[0].mac.dcf.channelAccess.pendingQueue packetRemoved:sum(packetBytes) 0
attr interpolationmode none
attr title "packets removed, sum(packetBytes)"
statistic Scenario.node[16].wlan[0].mac.dcf.channelAccess.inProgressFrames queueingTime:histogram
field count 1
field mean 0.000152
field stddev nan
field min 0.000152
field max 0.000152
field sum 0.000152
field sqrsum 2.3104e-008
attr interpolationmode none
attr source queueingTime(packetDequeued)
attr title "queueing times, histogram"
bin	-inf	0
bin	0	1
bin	0.01	0
bin	0.02	0
bin	0.03	0
bin	0.04	0
bin	0.05	0
bin	0.06	0
bin	0.07	0
bin	0.08	0
bin	0.09	0
bin	0.1	0
bin	0.11	0
bin	0.12	0
bin	0.13	0
bin	0.14	0
bin	0.15	0
bin	0.16	0
bin	0.17	0
bin	0.18	0
bin	0.19	0
bin	0.2	0
bin	0.21	0
bin	0.22	0
bin	0.23	0
bin	0.24	0
bin	0.25	0
bin	0.26	0
bin	0.27	0
bin	0.28	0
bin	0.29	0
bin	0.3	0
bin	0.31	0
bin	0.32	0
bin	0.33	0
bin	0.34	0
bin	0.35	0
bin	0.36	0
bin	0.37	0
bin	0.38	0
bin	0.39	0
bin	0.4	0
bin	0.41	0
bin	0.42	0
bin	0.43	0
bin	0.44	0
bin	0.45	0
bin	0.46	0
bin	0.47	0
bin	0.48	0
bin	0.49	0
bin	0.5	0
bin	0.51	0
scalar Scenario.node[16].wlan[0].mac.dcf.channelAccess.inProgressFrames queueLength:max 1
attr interpolationmode sample-hold
attr source "count(packetEnqueued) - count(packetDequeued)"
attr title "queue length, max"
scalar Scenario.node[16].wlan[0].mac.dcf.channelAccess.inProgressFrames queueLength:timeavg 1.2563097252874e-005
attr interpolationmode sample-hold
attr source "count(packetEnqueued) - count(packetDequeued)"
attr title "queue length, timeavg"
scalar Scenario.node[16].wlan[0].mac.dcf.channelAccess.contention stateChanged:count 38
attr interpolationmode none
attr title "contention state changed, count"
scalar Scenario.node[16].wlan[0].mac.dcf.channelAccess.contention channelAccessGranted:count 1
attr title "channel access granted, count"
scalar Scenario.node[16].wlan[0].mac.dcf.channelAccess channelOwnershipChanged:count 2
attr interpolationmode sample-hold
attr title "channel ownership, count"
scalar Scenario.node[16].wlan[0].mac.dcf.originatorMacDataService packetAggregated:count 0
attr title "packets aggregated, count"
scalar Scenario.node[16].wlan[0].mac.dcf.originatorMacDataService packetFragmented:count 0
attr title "packets fragmented, count"
scalar Scenario.node[16].wlan[0].mac.dcf.recipientMacDataService packetDropDuplicateDetected:count 0
attr interpolationmode none
attr source packetDropReasonIsDuplicateDetected(packetDropped)
attr title "packet drops: duplicate detected, count"
scalar Scenario.node[16].wlan[0].mac.dcf.recipientMacDataService packetDropDuplicateDetected:sum(packetBytes) 0
attr interpolationmode none
attr source packetDropReasonIsDuplicateDetected(packetDropped)
attr title "packet drops: duplicate detected, sum(packetBytes)"
scalar Scenario.node[16].wlan[0].mac.dcf.recipientMacDataService packetDeaggregated:count 0
attr title "packets deaggregated, count"
scalar Scenario.node[16].wlan[0].mac.dcf.recipientMacDataService packetDefragmented:count 4
attr title "packets defragmented, count"
scalar Scenario.node[16].wlan[0].mac.dcf.recoveryProcedure retryLimitReached:count 0
attr title "retry limit reached, count"
scalar Scenario.node[16].wlan[0].mac.dcf packetReceivedFromPeer:count 4
attr interpolationmode none
attr title "packets received, count"
scalar Scenario.node[16].wlan[0].mac.dcf packetReceivedFromPeer:sum(packetBytes) 632
attr interpolationmode none
attr title "packets received, sum(packetBytes)"
scalar Scenario.node[16].wlan[0].mac.dcf packetReceivedFromPeerUnicast:count 0
attr interpolationmode none
attr source ieee80211Unicast(packetReceivedFromPeer)
attr title "packets received: unicast, count"
scalar Scenario.node[16].wlan[0].mac.dcf packetReceivedFromPeerUnicast:sum(packetBytes) 0
attr interpolationmode none
attr source ieee80211Unicast(packetReceivedFromPeer)
attr title "packets received: unicast, sum(packetBytes)"
scalar Scenario.node[16].wlan[0].mac.dcf packetReceivedFromPeerMulticast:count 4
attr interpolationmode none
attr source ieee80211Multicast(packetReceivedFromPeer)
attr title "packets received: multicast, count"
scalar Scenario.node[16].wlan[0].mac.dcf packetReceivedFromPeerMulticast:sum(packetBytes) 632
attr interpolationmode none
attr source ieee80211Multicast(packetReceivedFromPeer)
attr title "packets received: multicast, sum(packetBytes)"
scalar Scenario.node[16].wlan[0].mac.dcf packetReceivedFromPeerBroadcast:count 0
attr interpolationmode none
attr source ieee80211Broadcast(packetReceivedFromPeer)
attr title "packets received: broadcast, count"
scalar Scenario.node[16].wlan[0].mac.dcf packetReceivedFromPeerBroadcast:sum(packetBytes) 0
attr interpolationmode none
attr source ieee80211Broadcast(packetReceivedFromPeer)
attr title "packets received: broadcast, sum(packetBytes)"
scalar Scenario.node[16].wlan[0].mac.dcf packetReceivedFromPeerWithRetry:count 0
attr interpolationmode none
attr source ieee80211Retry(packetReceivedFromPeer)
attr title "packets received: with retry, count"
scalar Scenario.node[16].wlan[0].mac.dcf packetReceivedFromPeerWithRetry:sum(packetBytes) 0
attr interpolationmode none
attr source ieee80211Retry(packetReceivedFromPeer)
attr title "packets received: with retry, sum(packetBytes)"
scalar Scenario.node[16].wlan[0].mac.dcf packetReceivedFromPeerWithoutRetry:count 4
attr interpolationmode none
attr source ieee80211NotRetry(packetReceivedFromPeer)
attr title "packets received: without retry, count"
scalar Scenario.node[16].wlan[0].mac.dcf packetReceivedFromPeerWithoutRetry:sum(packetBytes) 632
attr interpolationmode none
attr source ieee80211NotRetry(packetReceivedFromPeer)
attr title "packets received: without retry, sum(packetBytes)"
scalar Scenario.node[16].wlan[0].mac.dcf packetSentToPeer:count 1
attr interpolationmode none
attr title "packets sent, count"
scalar Scenario.node[16].wlan[0].mac.dcf packetSentToPeer:sum(packetBytes) 158
attr interpolationmode none
attr title "packets sent, sum(packetBytes)"
scalar Scenario.node[16].wlan[0].mac.dcf packetSentToPeerUnicast:count 0
attr interpolationmode none
attr source ieee80211Unicast(packetSentToPeer)
attr title "packets sent: unicast, count"
scalar Scenario.node[16].wlan[0].mac.dcf packetSentToPeerUnicast:sum(packetBytes) 0
attr interpolationmode none
attr source ieee80211Unicast(packetSentToPeer)
attr title "packets sent: unicast, sum(packetBytes)"
scalar Scenario.node[16].wlan[0].mac.dcf packetSentToPeerMulticast:count 1
attr interpolationmode none
attr source ieee80211Multicast(packetSentToPeer)
attr title "packets sent: multicast, count"
scalar Scenario.node[16].wlan[0].mac.dcf packetSentToPeerMulticast:sum(packetBytes) 158
attr interpolationmode none
attr source ieee80211Multicast(packetSentToPeer)
attr title "packets sent: multicast, sum(packetBytes)"
scalar Scenario.node[16].wlan[0].mac.dcf packetSentToPeerBroadcast:count 0
attr interpolationmode none
attr source ieee80211Broadcast(packetSentToPeer)
attr title "packets sent: broadcast , count"
scalar Scenario.node[16].wlan[0].mac.dcf packetSentToPeerBroadcast:sum(packetBytes) 0
attr interpolationmode none
attr source ieee80211Broadcast(packetSentToPeer)
attr title "packets sent: broadcast , sum(packetBytes)"
scalar Scenario.node[16].wlan[0].mac.dcf packetSentToPeerWithRetry:count 0
attr interpolationmode none
attr source ieee80211Retry(packetSentToPeer)
attr title "packets sent: with retry, count"
scalar Scenario.node[16].wlan[0].mac.dcf packetSentToPeerWithRetry:sum(packetBytes) 0
attr interpolationmode none
attr source ieee80211Retry(packetSentToPeer)
attr title "packets sent: with retry, sum(packetBytes)"
scalar Scenario.node[16].wlan[0].mac.dcf packetSentToPeerWithoutRetry:count 1
attr interpolationmode none
attr source ieee80211NotRetry(packetSentToPeer)
attr title "packets sent: without retry, count"
scalar Scenario.node[16].wlan[0].mac.dcf packetSentToPeerWithoutRetry:sum(packetBytes) 158
attr interpolationmode none
attr source ieee80211NotRetry(packetSentToPeer)
attr title "packets sent: without retry, sum(packetBytes)"
scalar Scenario.node[16].wlan[0].mac.dcf packetDrop:count 0
attr interpolationmode none
attr source packetDropped
attr title "packet drops, count"
scalar Scenario.node[16].wlan[0].mac.dcf packetDrop:sum(packetBytes) 0
attr interpolationmode none
attr source packetDropped
attr title "packet drops, sum(packetBytes)"
scalar Scenario.node[16].wlan[0].mac.dcf packetDropNotAddressedToUs:count 0
attr interpolationmode none
attr source packetDropReasonIsNotAddressedToUs(packetDropped)
attr title "packet drops: not addressed to us, count"
scalar Scenario.node[16].wlan[0].mac.dcf packetDropNotAddressedToUs:sum(packetBytes) 0
attr interpolationmode none
attr source packetDropReasonIsNotAddressedToUs(packetDropped)
attr title "packet drops: not addressed to us, sum(packetBytes)"
scalar Scenario.node[16].wlan[0].mac.dcf packetDropQueueOverflow:count 0
attr interpolationmode none
attr source packetDropReasonIsQueueOverflow(packetDropped)
attr title "packet drops: queue overflow, count"
scalar Scenario.node[16].wlan[0].mac.dcf packetDropQueueOverflow:sum(packetBytes) 0
attr interpolationmode none
attr source packetDropReasonIsQueueOverflow(packetDropped)
attr title "packet drops: queue overflow, sum(packetBytes)"
scalar Scenario.node[16].wlan[0].mac.dcf packetDropRetryLimitReached:count 0
attr interpolationmode none
attr source packetDropReasonIsRetryLimitReached(packetDropped)
attr title "packet drops: retry limit reached, count"
scalar Scenario.node[16].wlan[0].mac.dcf packetDropRetryLimitReached:sum(packetBytes) 0
attr interpolationmode none
attr source packetDropReasonIsRetryLimitReached(packetDropped)
attr title "packet drops: retry limit reached, sum(packetBytes)"
scalar Scenario.node[16].wlan[0].mac.dcf linkBroken:count 0
attr interpolationmode none
attr title "link breaks, count"
scalar Scenario.node[16].wlan[0].mac.dcf frameSequenceFinished:count 1
attr title "finished frame sequences, count"
statistic Scenario.node[16].wlan[0].mac.dcf frameSequenceDuration:histogram
field count 1
field mean 0.000152
field stddev nan
field min 0.000152
field max 0.000152
field sum 0.000152
field sqrsum 2.3104e-008
attr source frameSequenceDuration(frameSequenceFinished)
attr title "frame sequence durations, histogram"
bin	-inf	0
bin	0	1
bin	0.01	0
bin	0.02	0
bin	0.03	0
bin	0.04	0
bin	0.05	0
bin	0.06	0
bin	0.07	0
bin	0.08	0
bin	0.09	0
bin	0.1	0
bin	0.11	0
bin	0.12	0
bin	0.13	0
bin	0.14	0
bin	0.15	0
bin	0.16	0
bin	0.17	0
bin	0.18	0
bin	0.19	0
bin	0.2	0
bin	0.21	0
bin	0.22	0
bin	0.23	0
bin	0.24	0
bin	0.25	0
bin	0.26	0
bin	0.27	0
bin	0.28	0
bin	0.29	0
bin	0.3	0
bin	0.31	0
bin	0.32	0
bin	0.33	0
bin	0.34	0
bin	0.35	0
bin	0.36	0
bin	0.37	0
bin	0.38	0
bin	0.39	0
bin	0.4	0
bin	0.41	0
bin	0.42	0
bin	0.43	0
bin	0.44	0
bin	0.45	0
bin	0.46	0
bin	0.47	0
bin	0.48	0
bin	0.49	0
bin	0.5	0
bin	0.51	0
statistic Scenario.node[16].wlan[0].mac.dcf frameSequenceNumPackets:histogram
field count 1
field mean 1
field stddev nan
field min 1
field max 1
field sum 1
field sqrsum 1
attr source frameSequenceNumPackets(frameSequenceFinished)
attr title "frame sequences: number of packets, histogram"
bin	-inf	0
bin	0	0
bin	1	1
bin	2	0
scalar Scenario.node[16].wlan[0].mac packetReceivedFromLower:count 6
attr interpolationmode none
attr title "packets received from lower layer, count"
scalar Scenario.node[16].wlan[0].mac packetReceivedFromLower:sum(packetBytes) 948
attr interpolationmode none
attr title "packets received from lower layer, sum(packetBytes)"
scalar Scenario.node[16].wlan[0].mac packetSentToLower:count 1
attr interpolationmode none
attr title "packets sent to lower layer, count"
scalar Scenario.node[16].wlan[0].mac packetSentToLower:sum(packetBytes) 158
attr interpolationmode none
attr title "packets sent to lower layer, sum(packetBytes)"
scalar Scenario.node[16].wlan[0].mac packetReceivedFromUpper:count 1
attr interpolationmode none
attr title "packets received from upper layer, count"
scalar Scenario.node[16].wlan[0].mac packetReceivedFromUpper:sum(packetBytes) 130
attr interpolationmode none
attr title "packets received from upper layer, sum(packetBytes)"
scalar Scenario.node[16].wlan[0].mac packetSentToUpper:count 4
attr interpolationmode none
attr title "packets sent to upper layer, count"
scalar Scenario.node[16].wlan[0].mac packetSentToUpper:sum(packetBytes) 520
attr interpolationmode none
attr title "packets sent to upper layer, sum(packetBytes)"
scalar Scenario.node[16].wlan[0].mac packetDrop:count 2
attr interpolationmode none
attr source packetDropped
attr title "packet drops, count"
scalar Scenario.node[16].wlan[0].mac packetDrop:sum(packetBytes) 316
attr interpolationmode none
attr source packetDropped
attr title "packet drops, sum(packetBytes)"
scalar Scenario.node[16].wlan[0].mac packetDropIncorrectlyReceived:count 2
attr interpolationmode none
attr source packetDropReasonIsIncorrectlyReceived(packetDropped)
attr title "packet drops: incorrectly received, count"
scalar Scenario.node[16].wlan[0].mac packetDropIncorrectlyReceived:sum(packetBytes) 316
attr interpolationmode none
attr source packetDropReasonIsIncorrectlyReceived(packetDropped)
attr title "packet drops: incorrectly received, sum(packetBytes)"
scalar Scenario.node[16].wlan[0].mac packetDropNotAddressedToUs:count 0
attr interpolationmode none
attr source packetDropReasonIsNotAddressedToUs(packetDropped)
attr title "packet drops: not addressed to us, count"
scalar Scenario.node[16].wlan[0].mac packetDropNotAddressedToUs:sum(packetBytes) 0
attr interpolationmode none
attr source packetDropReasonIsNotAddressedToUs(packetDropped)
attr title "packet drops: not addressed to us, sum(packetBytes)"
scalar Scenario.node[16].wlan[0].mac packetDropQueueOverflow:count 0
attr interpolationmode none
attr source packetDropReasonIsQueueOverflow(packetDropped)
attr title "packet drops: queue overflow, count"
scalar Scenario.node[16].wlan[0].mac packetDropQueueOverflow:sum(packetBytes) 0
attr interpolationmode none
attr source packetDropReasonIsQueueOverflow(packetDropped)
attr title "packet drops: queue overflow, sum(packetBytes)"
scalar Scenario.node[16].wlan[0].mac packetDropRetryLimitReached:count 0
attr interpolationmode none
attr source packetDropReasonIsRetryLimitReached(packetDropped)
attr title "packet drops: retry limit reached, count"
scalar Scenario.node[16].wlan[0].mac packetDropRetryLimitReached:sum(packetBytes) 0
attr interpolationmode none
attr source packetDropReasonIsRetryLimitReached(packetDropped)
attr title "packet drops: retry limit reached, sum(packetBytes)"
scalar Scenario.node[16].wlan[0].mac packetDropDuplicateDetected:count 0
attr interpolationmode none
attr source packetDropReasonIsDuplicateDetected(packetDropped)
attr title "packet drops: duplicate detected, count"
scalar Scenario.node[16].wlan[0].mac packetDropDuplicateDetected:sum(packetBytes) 0
attr interpolationmode none
attr source packetDropReasonIsDuplicateDetected(packetDropped)
attr title "packet drops: duplicate detected, sum(packetBytes)"
scalar Scenario.node[16].wlan[0].mac packetDropOther:count 0
attr interpolationmode none
attr source packetDropReasonIsOther(packetDropped)
attr title "packet drops: other, count"
scalar Scenario.node[16].wlan[0].mac packetDropOther:sum(packetBytes) 0
attr interpolationmode none
attr source packetDropReasonIsOther(packetDropped)
attr title "packet drops: other, sum(packetBytes)"
scalar Scenario.node[16].wlan[0].mac linkBroken:count 0
attr interpolationmode none
attr title "link breaks, count"
statistic Scenario.node[16].wlan[0].radio minSnir:histogram
field count 6
field mean 213.6630730401
field stddev 252.04295840222
field min 1.7877110654992
field max 684.99324367672
field sum 1281.9784382406
field sqrsum 591539.71708635
attr source minimumSnir(packetSentToUpper)
attr title "Min SNIR, histogram"
bin	-inf	0
bin	0	2
bin	10	0
bin	20	0
bin	30	0
bin	40	0
bin	50	0
bin	60	0
bin	70	0
bin	80	0
bin	90	0
bin	100	0
bin	110	0
bin	120	0
bin	130	0
bin	140	0
bin	150	0
bin	160	2
bin	170	0
bin	180	0
bin	190	0
bin	200	0
bin	210	0
bin	220	0
bin	230	0
bin	240	0
bin	250	0
bin	260	1
bin	270	0
bin	280	0
bin	290	0
bin	300	0
bin	310	0
bin	320	0
bin	330	0
bin	340	0
bin	350	0
bin	360	0
bin	370	0
bin	380	0
bin	390	0
bin	400	0
bin	410	0
bin	420	0
bin	430	0
bin	440	0
bin	450	0
bin	460	0
bin	470	0
bin	480	0
bin	490	0
bin	500	0
bin	510	0
bin	520	0
bin	530	0
bin	540	0
bin	550	0
bin	560	0
bin	570	0
bin	580	0
bin	590	0
bin	600	0
bin	610	0
bin	620	0
bin	630	0
bin	640	0
bin	650	0
bin	660	0
bin	670	0
bin	680	1
bin	690	0
bin	700	0
bin	710	0
bin	720	0
bin	730	0
bin	740	0
bin	750	0
bin	760	0
bin	770	0
bin	780	0
bin	790	0
bin	800	0
bin	810	0
bin	820	0
bin	830	0
bin	840	0
bin	850	0
bin	860	0
statistic Scenario.node[16].wlan[0].radio packetErrorRate:histogram
field count 6
field mean 0.33333333333333
field stddev 0.51639777949432
field min 0
field max 1
field sum 2
field sqrsum 2
attr source packetErrorRate(packetSentToUpper)
attr title "Packet error rate, histogram"
bin	-inf	0
bin	0	4
bin	1	2
bin	2	0
statistic Scenario.node[16].wlan[0].radio bitErrorRate:histogram
field count 0
field mean nan
field stddev nan
field min nan
field max nan
field sum 0
field sqrsum 0
attr source bitErrorRate(packetSentToUpper)
attr title "Bit error rate, histogram"
bin	-inf	0
bin	0	0
bin	1	0
statistic Scenario.node[16].wlan[0].radio symbolErrorRate:histogram
field count 0
field mean nan
field stddev nan
field min nan
field max nan
field sum 0
field sqrsum 0
attr source symbolErrorRate(packetSentToUpper)
attr title "Symbol error rate, histogram"
bin	-inf	0
bin	0	0
bin	1	0
scalar Scenario.node[16].wlan[0].radio transmissionState:count 4
attr interpolationmode sample-hold
attr source transmissionStateChanged
attr title "Radio transmission state, count"
scalar Scenario.node[16].wlan[0].radio receptionState:count 17
attr interpolationmode sample-hold
attr source receptionStateChanged
attr title "Radio reception state, count"
scalar Scenario.node[16].wlan[0].radio radioMode:count 5
attr interpolationmode sample-hold
attr source radioModeChanged
attr title "Radio mode, count"
statistic Scenario.node[16].wlan[0].radio radioChannel:histogram
field count 1
field mean 3
field stddev nan
field min 3
field max 3
field sum 3
field sqrsum 9
attr interpolationmode sample-hold
attr source radioChannelChanged
attr title "Radio channel, histogram"
bin	-inf	0
bin	2	0
bin	3	1
bin	4	0
scalar Scenario.node[16].ipv4.ip packetDropAddressResolutionFailed:count 0
attr interpolationmode none
attr source packetDropReasonIsAddressResolutionFailed(packetDropped)
attr title "packet drop: address resolution failed, count"
scalar Scenario.node[16].ipv4.ip packetDropAddressResolutionFailed:sum(packetBytes) 0
attr interpolationmode none
attr source packetDropReasonIsAddressResolutionFailed(packetDropped)
attr title "packet drop: address resolution failed, sum(packetBytes)"
scalar Scenario.node[16].ipv4.ip packetDropHopLimitReached:count 0
attr interpolationmode none
attr source packetDropReasonIsHopLimitReached(packetDropped)
attr title "packet drop: hop limit reached, count"
scalar Scenario.node[16].ipv4.ip packetDropHopLimitReached:sum(packetBytes) 0
attr interpolationmode none
attr source packetDropReasonIsHopLimitReached(packetDropped)
attr title "packet drop: hop limit reached, sum(packetBytes)"
scalar Scenario.node[16].ipv4.ip packetDropForwardingDisabled:count 0
attr interpolationmode none
attr source packetDropReasonIsForwardingDisabled(packetDropped)
attr title "packet drop: forwarding disabled, count"
scalar Scenario.node[16].ipv4.ip packetDropForwardingDisabled:sum(packetBytes) 0
attr interpolationmode none
attr source packetDropReasonIsForwardingDisabled(packetDropped)
attr title "packet drop: forwarding disabled, sum(packetBytes)"
scalar Scenario.node[16].ipv4.ip packetDropNoInterfaceFound:count 0
attr interpolationmode none
attr source packetDropReasonIsNoInterfaceFound(packetDropped)
attr title "packet drop: no interface found, count"
scalar Scenario.node[16].ipv4.ip packetDropNoInterfaceFound:sum(packetBytes) 0
attr interpolationmode none
attr source packetDropReasonIsNoInterfaceFound(packetDropped)
attr title "packet drop: no interface found, sum(packetBytes)"
scalar Scenario.node[16].ipv4.ip packetDropNoRouteFound:count 0
attr interpolationmode none
attr source packetDropReasonIsNoRouteFound(packetDropped)
attr title "packet drop: no route found, count"
scalar Scenario.node[16].ipv4.ip packetDropNoRouteFound:sum(packetBytes) 0
attr interpolationmode none
attr source packetDropReasonIsNoRouteFound(packetDropped)
attr title "packet drop: no route found, sum(packetBytes)"
scalar Scenario.node[16].ipv4.ip packetDropUndefined:count 0
attr interpolationmode none
attr source packetDropReasonIsUndefined(packetDropped)
attr title "packet drop: undefined, count"
scalar Scenario.node[16].ipv4.ip packetDropUndefined:sum(packetBytes) 0
attr interpolationmode none
attr source packetDropReasonIsUndefined(packetDropped)
attr title "packet drop: undefined, sum(packetBytes)"
scalar Scenario.node[16].ipv4.arp arpReplySent:count 0
attr source arpReplySent
attr title "ARP replies sent, count"
scalar Scenario.node[16].ipv4.arp arpReplySent:sum(packetBytes) 0
attr source arpReplySent
attr title "ARP replies sent, sum(packetBytes)"
scalar Scenario.node[16].ipv4.arp arpRequestSent:count 0
attr source arpRequestSent
attr title "ARP request sent, count"
scalar Scenario.node[16].ipv4.arp arpRequestSent:sum(packetBytes) 0
attr source arpRequestSent
attr title "ARP request sent, sum(packetBytes)"
scalar Scenario.node[16].ipv4.arp arpResolutionFailed:count 0
attr title "ARP failed resolutions, count"
scalar Scenario.node[16].ipv4.arp arpResolutionCompleted:count 0
attr title "ARP completed resolutions, count"
scalar Scenario.node[16].ipv4.arp arpResolutionInitiated:count 0
attr title "ARP initiated resolutions, count"
scalar Scenario.node[16].udp packetReceived:count 5
attr interpolationmode none
attr source packetReceived
attr title "packets received, count"
scalar Scenario.node[16].udp packetReceived:sum(packetBytes) 540
attr interpolationmode none
attr source packetReceived
attr title "packets received, sum(packetBytes)"
scalar Scenario.node[16].udp packetSent:count 1
attr interpolationmode none
attr source packetSent
attr title "packets sent, count"
scalar Scenario.node[16].udp packetSent:sum(packetBytes) 108
attr interpolationmode none
attr source packetSent
attr title "packets sent, sum(packetBytes)"
scalar Scenario.node[16].udp passedUpPk:count 5
attr interpolationmode none
attr source packetSentToUpper
attr title "packets passed up, count"
scalar Scenario.node[16].udp droppedPkWrongPort:count 0
attr interpolationmode none
attr source packetDropReasonIsNoPortFound(packetDropped)
attr title "packets dropped (wrong port), count"
scalar Scenario.node[16].udp droppedPkBadChecksum:count 0
attr interpolationmode none
attr source packetDropReasonIsIncorrectlyReceived(packetDropped)
attr title "packets dropped (checksum error), count"
scalar Scenario.node[16].app[0] packetReceived:count 5
attr interpolationmode none
attr source packetReceived
attr title "packets received, count"
scalar Scenario.node[16].app[0] packetReceived:sum(packetBytes) 500
attr interpolationmode none
attr source packetReceived
attr title "packets received, sum(packetBytes)"
statistic Scenario.node[16].app[0] rcvdPkLifetime:stats
field count 5
field mean 0.0005521829162
field stddev 0.0005444948910097
field min 0.000155885379
field max 0.001465562695
field sum 0.002760914581
field sqrsum 2.7104286100583e-006
attr interpolationmode none
attr source dataAge(packetReceived)
attr title "received packet lifetime, stats"
attr unit s
scalar Scenario.node[16].app[0] packetSent:count 1
attr interpolationmode none
attr source packetSent
attr title "packets sent, count"
scalar Scenario.node[16].app[0] packetSent:sum(packetBytes) 100
attr interpolationmode none
attr source packetSent
attr title "packets sent, sum(packetBytes)"
scalar Scenario.node[13].lo[0].lo rcvdPkFromHl:count 1
attr interpolationmode none
attr source packetReceivedFromUpper
attr title "packets received from higher layer, count"
scalar Scenario.node[13].lo[0].lo rcvdPkFromHl:sum(packetBytes) 128
attr interpolationmode none
attr source packetReceivedFromUpper
attr title "packets received from higher layer, sum(packetBytes)"
scalar Scenario.node[13].lo[0].lo passedUpPk:count 1
attr interpolationmode none
attr source packetSentToUpper
attr title "packets passed to higher layer, count"
scalar Scenario.node[13].lo[0].lo passedUpPk:sum(packetBytes) 128
attr interpolationmode none
attr source packetSentToUpper
attr title "packets passed to higher layer, sum(packetBytes)"
scalar Scenario.node[13].wlan[0].mac.dcf.channelAccess.pendingQueue packetPopped:count 1
attr interpolationmode none
attr title "packet popped, count"
scalar Scenario.node[13].wlan[0].mac.dcf.channelAccess.pendingQueue packetPopped:sum(packetBytes) 158
attr interpolationmode none
attr title "packet popped, sum(packetBytes)"
statistic Scenario.node[13].wlan[0].mac.dcf.channelAccess.pendingQueue queueingTime:histogram
field count 1
field mean 0.001432626198
field stddev nan
field min 0.001432626198
field max 0.001432626198
field sum 0.001432626198
field sqrsum 2.0524178231959e-006
attr interpolationmode none
attr source queueingTime(packetPopped)
attr title "queueing times, histogram"
attr unit s
bin	-inf	0
bin	0	1
bin	0.01	0
bin	0.02	0
bin	0.03	0
bin	0.04	0
bin	0.05	0
bin	0.06	0
bin	0.07	0
bin	0.08	0
bin	0.09	0
bin	0.1	0
bin	0.11	0
bin	0.12	0
bin	0.13	0
bin	0.14	0
bin	0.15	0
bin	0.16	0
bin	0.17	0
bin	0.18	0
bin	0.19	0
bin	0.2	0
bin	0.21	0
bin	0.22	0
bin	0.23	0
bin	0.24	0
bin	0.25	0
bin	0.26	0
bin	0.27	0
bin	0.28	0
bin	0.29	0
bin	0.3	0
bin	0.31	0
bin	0.32	0
bin	0.33	0
bin	0.34	0
bin	0.35	0
bin	0.36	0
bin	0.37	0
bin	0.38	0
bin	0.39	0
bin	0.4	0
bin	0.41	0
bin	0.42	0
bin	0.43	0
bin	0.44	0
bin	0.45	0
bin	0.46	0
bin	0.47	0
bin	0.48	0
bin	0.49	0
bin	0.5	0
bin	0.51	0
scalar Scenario.node[13].wlan[0].mac.dcf.channelAccess.pendingQueue queueLength:max 1
attr interpolationmode sample-hold
attr source "count(packetPushed) - count(packetPopped) - count(packetRemoved) - count(packetDropped)"
attr title "queue length, max"
scalar Scenario.node[13].wlan[0].mac.dcf.channelAccess.pendingQueue queueLength:timeavg 0.00010936206690857
attr interpolationmode sample-hold
attr source "count(packetPushed) - count(packetPopped) - count(packetRemoved) - count(packetDropped)"
attr title "queue length, timeavg"
scalar Scenario.node[13].wlan[0].mac.dcf.channelAccess.pendingQueue packetPushed:count 1
attr interpolationmode none
attr title "packet pushed, count"
scalar Scenario.node[13].wlan[0].mac.dcf.channelAccess.pendingQueue packetPushed:sum(packetBytes) 158
attr interpolationmode none
attr title "packet pushed, sum(packetBytes)"
scalar Scenario.node[13].wlan[0].mac.dcf.channelAccess.pendingQueue packetDropQueueOverflow:count 0
attr interpolationmode none
attr source packetDropReasonIsQueueOverflow(packetDropped)
attr title "packet drops: queue overflow, count"
scalar Scenario.node[13].wlan[0].mac.dcf.channelAccess.pendingQueue packetDropQueueOverflow:sum(packetBytes) 0
attr interpolationmode none
attr source packetDropReasonIsQueueOverflow(packetDropped)
attr title "packet drops: queue overflow, sum(packetBytes)"
scalar Scenario.node[13].wlan[0].mac.dcf.channelAccess.pendingQueue packetRemoved:count 0
attr interpolationmode none
attr title "packets removed, count"
scalar Scenario.node[13].wlan[0].mac.dcf.channelAccess.pendingQueue packetRemoved:sum(packetBytes) 0
attr interpolationmode none
attr title "packets removed, sum(packetBytes)"
statistic Scenario.node[13].wlan[0].mac.dcf.channelAccess.inProgressFrames queueingTime:histogram
field count 1
field mean 0.000152
field stddev nan
field min 0.000152
field max 0.000152
field sum 0.000152
field sqrsum 2.3104e-008
attr interpolationmode none
attr source queueingTime(packetDequeued)
attr title "queueing times, histogram"
bin	-inf	0
bin	0	1
bin	0.01	0
bin	0.02	0
bin	0.03	0
bin	0.04	0
bin	0.05	0
bin	0.06	0
bin	0.07	0
bin	0.08	0
bin	0.09	0
bin	0.1	0
bin	0.11	0
bin	0.12	0
bin	0.13	0
bin	0.14	0
bin	0.15	0
bin	0.16	0
bin	0.17	0
bin	0.18	0
bin	0.19	0
bin	0.2	0
bin	0.21	0
bin	0.22	0
bin	0.23	0
bin	0.24	0
bin	0.25	0
bin	0.26	0
bin	0.27	0
bin	0.28	0
bin	0.29	0
bin	0.3	0
bin	0.31	0
bin	0.32	0
bin	0.33	0
bin	0.34	0
bin	0.35	0
bin	0.36	0
bin	0.37	0
bin	0.38	0
bin	0.39	0
bin	0.4	0
bin	0.41	0
bin	0.42	0
bin	0.43	0
bin	0.44	0
bin	0.45	0
bin	0.46	0
bin	0.47	0
bin	0.48	0
bin	0.49	0
bin	0.5	0
bin	0.51	0
scalar Scenario.node[13].wlan[0].mac.dcf.channelAccess.inProgressFrames queueLength:max 1
attr interpolationmode sample-hold
attr source "count(packetEnqueued) - count(packetDequeued)"
attr title "queue length, max"
scalar Scenario.node[13].wlan[0].mac.dcf.channelAccess.inProgressFrames queueLength:timeavg 1.160445922427e-005
attr interpolationmode sample-hold
attr source "count(packetEnqueued) - count(packetDequeued)"
attr title "queue length, timeavg"
scalar Scenario.node[13].wlan[0].mac.dcf.channelAccess.contention stateChanged:count 36
attr interpolationmode none
attr title "contention state changed, count"
scalar Scenario.node[13].wlan[0].mac.dcf.channelAccess.contention channelAccessGranted:count 1
attr title "channel access granted, count"
scalar Scenario.node[13].wlan[0].mac.dcf.channelAccess channelOwnershipChanged:count 2
attr interpolationmode sample-hold
attr title "channel ownership, count"
scalar Scenario.node[13].wlan[0].mac.dcf.originatorMacDataService packetAggregated:count 0
attr title "packets aggregated, count"
scalar Scenario.node[13].wlan[0].mac.dcf.originatorMacDataService packetFragmented:count 0
attr title "packets fragmented, count"
scalar Scenario.node[13].wlan[0].mac.dcf.recipientMacDataService packetDropDuplicateDetected:count 0
attr interpolationmode none
attr source packetDropReasonIsDuplicateDetected(packetDropped)
attr title "packet drops: duplicate detected, count"
scalar Scenario.node[13].wlan[0].mac.dcf.recipientMacDataService packetDropDuplicateDetected:sum(packetBytes) 0
attr interpolationmode none
attr source packetDropReasonIsDuplicateDetected(packetDropped)
attr title "packet drops: duplicate detected, sum(packetBytes)"
scalar Scenario.node[13].wlan[0].mac.dcf.recipientMacDataService packetDeaggregated:count 0
attr title "packets deaggregated, count"
scalar Scenario.node[13].wlan[0].mac.dcf.recipientMacDataService packetDefragmented:count 5
attr title "packets defragmented, count"
scalar Scenario.node[13].wlan[0].mac.dcf.recoveryProcedure retryLimitReached:count 0
attr title "retry limit reached, count"
scalar Scenario.node[13].wlan[0].mac.dcf packetReceivedFromPeer:count 5
attr interpolationmode none
attr title "packets received, count"
scalar Scenario.node[13].wlan[0].mac.dcf packetReceivedFromPeer:sum(packetBytes) 790
attr interpolationmode none
attr title "packets received, sum(packetBytes)"
scalar Scenario.node[13].wlan[0].mac.dcf packetReceivedFromPeerUnicast:count 0
attr interpolationmode none
attr source ieee80211Unicast(packetReceivedFromPeer)
attr title "packets received: unicast, count"
scalar Scenario.node[13].wlan[0].mac.dcf packetReceivedFromPeerUnicast:sum(packetBytes) 0
attr interpolationmode none
attr source ieee80211Unicast(packetReceivedFromPeer)
attr title "packets received: unicast, sum(packetBytes)"
scalar Scenario.node[13].wlan[0].mac.dcf packetReceivedFromPeerMulticast:count 5
attr interpolationmode none
attr source ieee80211Multicast(packetReceivedFromPeer)
attr title "packets received: multicast, count"
scalar Scenario.node[13].wlan[0].mac.dcf packetReceivedFromPeerMulticast:sum(packetBytes) 790
attr interpolationmode none
attr source ieee80211Multicast(packetReceivedFromPeer)
attr title "packets received: multicast, sum(packetBytes)"
scalar Scenario.node[13].wlan[0].mac.dcf packetReceivedFromPeerBroadcast:count 0
attr interpolationmode none
attr source ieee80211Broadcast(packetReceivedFromPeer)
attr title "packets received: broadcast, count"
scalar Scenario.node[13].wlan[0].mac.dcf packetReceivedFromPeerBroadcast:sum(packetBytes) 0
attr interpolationmode none
attr source ieee80211Broadcast(packetReceivedFromPeer)
attr title "packets received: broadcast, sum(packetBytes)"
scalar Scenario.node[13].wlan[0].mac.dcf packetReceivedFromPeerWithRetry:count 0
attr interpolationmode none
attr source ieee80211Retry(packetReceivedFromPeer)
attr title "packets received: with retry, count"
scalar Scenario.node[13].wlan[0].mac.dcf packetReceivedFromPeerWithRetry:sum(packetBytes) 0
attr interpolationmode none
attr source ieee80211Retry(packetReceivedFromPeer)
attr title "packets received: with retry, sum(packetBytes)"
scalar Scenario.node[13].wlan[0].mac.dcf packetReceivedFromPeerWithoutRetry:count 5
attr interpolationmode none
attr source ieee80211NotRetry(packetReceivedFromPeer)
attr title "packets received: without retry, count"
scalar Scenario.node[13].wlan[0].mac.dcf packetReceivedFromPeerWithoutRetry:sum(packetBytes) 790
attr interpolationmode none
attr source ieee80211NotRetry(packetReceivedFromPeer)
attr title "packets received: without retry, sum(packetBytes)"
scalar Scenario.node[13].wlan[0].mac.dcf packetSentToPeer:count 1
attr interpolationmode none
attr title "packets sent, count"
scalar Scenario.node[13].wlan[0].mac.dcf packetSentToPeer:sum(packetBytes) 158
attr interpolationmode none
attr title "packets sent, sum(packetBytes)"
scalar Scenario.node[13].wlan[0].mac.dcf packetSentToPeerUnicast:count 0
attr interpolationmode none
attr source ieee80211Unicast(packetSentToPeer)
attr title "packets sent: unicast, count"
scalar Scenario.node[13].wlan[0].mac.dcf packetSentToPeerUnicast:sum(packetBytes) 0
attr interpolationmode none
attr source ieee80211Unicast(packetSentToPeer)
attr title "packets sent: unicast, sum(packetBytes)"
scalar Scenario.node[13].wlan[0].mac.dcf packetSentToPeerMulticast:count 1
attr interpolationmode none
attr source ieee80211Multicast(packetSentToPeer)
attr title "packets sent: multicast, count"
scalar Scenario.node[13].wlan[0].mac.dcf packetSentToPeerMulticast:sum(packetBytes) 158
attr interpolationmode none
attr source ieee80211Multicast(packetSentToPeer)
attr title "packets sent: multicast, sum(packetBytes)"
scalar Scenario.node[13].wlan[0].mac.dcf packetSentToPeerBroadcast:count 0
attr interpolationmode none
attr source ieee80211Broadcast(packetSentToPeer)
attr title "packets sent: broadcast , count"
scalar Scenario.node[13].wlan[0].mac.dcf packetSentToPeerBroadcast:sum(packetBytes) 0
attr interpolationmode none
attr source ieee80211Broadcast(packetSentToPeer)
attr title "packets sent: broadcast , sum(packetBytes)"
scalar Scenario.node[13].wlan[0].mac.dcf packetSentToPeerWithRetry:count 0
attr interpolationmode none
attr source ieee80211Retry(packetSentToPeer)
attr title "packets sent: with retry, count"
scalar Scenario.node[13].wlan[0].mac.dcf packetSentToPeerWithRetry:sum(packetBytes) 0
attr interpolationmode none
attr source ieee80211Retry(packetSentToPeer)
attr title "packets sent: with retry, sum(packetBytes)"
scalar Scenario.node[13].wlan[0].mac.dcf packetSentToPeerWithoutRetry:count 1
attr interpolationmode none
attr source ieee80211NotRetry(packetSentToPeer)
attr title "packets sent: without retry, count"
scalar Scenario.node[13].wlan[0].mac.dcf packetSentToPeerWithoutRetry:sum(packetBytes) 158
attr interpolationmode none
attr source ieee80211NotRetry(packetSentToPeer)
attr title "packets sent: without retry, sum(packetBytes)"
scalar Scenario.node[13].wlan[0].mac.dcf packetDrop:count 0
attr interpolationmode none
attr source packetDropped
attr title "packet drops, count"
scalar Scenario.node[13].wlan[0].mac.dcf packetDrop:sum(packetBytes) 0
attr interpolationmode none
attr source packetDropped
attr title "packet drops, sum(packetBytes)"
scalar Scenario.node[13].wlan[0].mac.dcf packetDropNotAddressedToUs:count 0
attr interpolationmode none
attr source packetDropReasonIsNotAddressedToUs(packetDropped)
attr title "packet drops: not addressed to us, count"
scalar Scenario.node[13].wlan[0].mac.dcf packetDropNotAddressedToUs:sum(packetBytes) 0
attr interpolationmode none
attr source packetDropReasonIsNotAddressedToUs(packetDropped)
attr title "packet drops: not addressed to us, sum(packetBytes)"
scalar Scenario.node[13].wlan[0].mac.dcf packetDropQueueOverflow:count 0
attr interpolationmode none
attr source packetDropReasonIsQueueOverflow(packetDropped)
attr title "packet drops: queue overflow, count"
scalar Scenario.node[13].wlan[0].mac.dcf packetDropQueueOverflow:sum(packetBytes) 0
attr interpolationmode none
attr source packetDropReasonIsQueueOverflow(packetDropped)
attr title "packet drops: queue overflow, sum(packetBytes)"
scalar Scenario.node[13].wlan[0].mac.dcf packetDropRetryLimitReached:count 0
attr interpolationmode none
attr source packetDropReasonIsRetryLimitReached(packetDropped)
attr title "packet drops: retry limit reached, count"
scalar Scenario.node[13].wlan[0].mac.dcf packetDropRetryLimitReached:sum(packetBytes) 0
attr interpolationmode none
attr source packetDropReasonIsRetryLimitReached(packetDropped)
attr title "packet drops: retry limit reached, sum(packetBytes)"
scalar Scenario.node[13].wlan[0].mac.dcf linkBroken:count 0
attr interpolationmode none
attr title "link breaks, count"
scalar Scenario.node[13].wlan[0].mac.dcf frameSequenceFinished:count 1
attr title "finished frame sequences, count"
statistic Scenario.node[13].wlan[0].mac.dcf frameSequenceDuration:histogram
field count 1
field mean 0.000152
field stddev nan
field min 0.000152
field max 0.000152
field sum 0.000152
field sqrsum 2.3104e-008
attr source frameSequenceDuration(frameSequenceFinished)
attr title "frame sequence durations, histogram"
bin	-inf	0
bin	0	1
bin	0.01	0
bin	0.02	0
bin	0.03	0
bin	0.04	0
bin	0.05	0
bin	0.06	0
bin	0.07	0
bin	0.08	0
bin	0.09	0
bin	0.1	0
bin	0.11	0
bin	0.12	0
bin	0.13	0
bin	0.14	0
bin	0.15	0
bin	0.16	0
bin	0.17	0
bin	0.18	0
bin	0.19	0
bin	0.2	0
bin	0.21	0
bin	0.22	0
bin	0.23	0
bin	0.24	0
bin	0.25	0
bin	0.26	0
bin	0.27	0
bin	0.28	0
bin	0.29	0
bin	0.3	0
bin	0.31	0
bin	0.32	0
bin	0.33	0
bin	0.34	0
bin	0.35	0
bin	0.36	0
bin	0.37	0
bin	0.38	0
bin	0.39	0
bin	0.4	0
bin	0.41	0
bin	0.42	0
bin	0.43	0
bin	0.44	0
bin	0.45	0
bin	0.46	0
bin	0.47	0
bin	0.48	0
bin	0.49	0
bin	0.5	0
bin	0.51	0
statistic Scenario.node[13].wlan[0].mac.dcf frameSequenceNumPackets:histogram
field count 1
field mean 1
field stddev nan
field min 1
field max 1
field sum 1
field sqrsum 1
attr source frameSequenceNumPackets(frameSequenceFinished)
attr title "frame sequences: number of packets, histogram"
bin	-inf	0
bin	0	0
bin	1	1
bin	2	0
scalar Scenario.node[13].wlan[0].mac packetReceivedFromLower:count 6
attr interpolationmode none
attr title "packets received from lower layer, count"
scalar Scenario.node[13].wlan[0].mac packetReceivedFromLower:sum(packetBytes) 948
attr interpolationmode none
attr title "packets received from lower layer, sum(packetBytes)"
scalar Scenario.node[13].wlan[0].mac packetSentToLower:count 1
attr interpolationmode none
attr title "packets sent to lower layer, count"
scalar Scenario.node[13].wlan[0].mac packetSentToLower:sum(packetBytes) 158
attr interpolationmode none
attr title "packets sent to lower layer, sum(packetBytes)"
scalar Scenario.node[13].wlan[0].mac packetReceivedFromUpper:count 1
attr interpolationmode none
attr title "packets received from upper layer, count"
scalar Scenario.node[13].wlan[0].mac packetReceivedFromUpper:sum(packetBytes) 130
attr interpolationmode none
attr title "packets received from upper layer, sum(packetBytes)"
scalar Scenario.node[13].wlan[0].mac packetSentToUpper:count 5
attr interpolationmode none
attr title "packets sent to upper layer, count"
scalar Scenario.node[13].wlan[0].mac packetSentToUpper:sum(packetBytes) 650
attr interpolationmode none
attr title "packets sent to upper layer, sum(packetBytes)"
scalar Scenario.node[13].wlan[0].mac packetDrop:count 1
attr interpolationmode none
attr source packetDropped
attr title "packet drops, count"
scalar Scenario.node[13].wlan[0].mac packetDrop:sum(packetBytes) 158
attr interpolationmode none
attr source packetDropped
attr title "packet drops, sum(packetBytes)"
scalar Scenario.node[13].wlan[0].mac packetDropIncorrectlyReceived:count 1
attr interpolationmode none
attr source packetDropReasonIsIncorrectlyReceived(packetDropped)
attr title "packet drops: incorrectly received, count"
scalar Scenario.node[13].wlan[0].mac packetDropIncorrectlyReceived:sum(packetBytes) 158
attr interpolationmode none
attr source packetDropReasonIsIncorrectlyReceived(packetDropped)
attr title "packet drops: incorrectly received, sum(packetBytes)"
scalar Scenario.node[13].wlan[0].mac packetDropNotAddressedToUs:count 0
attr interpolationmode none
attr source packetDropReasonIsNotAddressedToUs(packetDropped)
attr title "packet drops: not addressed to us, count"
scalar Scenario.node[13].wlan[0].mac packetDropNotAddressedToUs:sum(packetBytes) 0
attr interpolationmode none
attr source packetDropReasonIsNotAddressedToUs(packetDropped)
attr title "packet drops: not addressed to us, sum(packetBytes)"
scalar Scenario.node[13].wlan[0].mac packetDropQueueOverflow:count 0
attr interpolationmode none
attr source packetDropReasonIsQueueOverflow(packetDropped)
attr title "packet drops: queue overflow, count"
scalar Scenario.node[13].wlan[0].mac packetDropQueueOverflow:sum(packetBytes) 0
attr interpolationmode none
attr source packetDropReasonIsQueueOverflow(packetDropped)
attr title "packet drops: queue overflow, sum(packetBytes)"
scalar Scenario.node[13].wlan[0].mac packetDropRetryLimitReached:count 0
attr interpolationmode none
attr source packetDropReasonIsRetryLimitReached(packetDropped)
attr title "packet drops: retry limit reached, count"
scalar Scenario.node[13].wlan[0].mac packetDropRetryLimitReached:sum(packetBytes) 0
attr interpolationmode none
attr source packetDropReasonIsRetryLimitReached(packetDropped)
attr title "packet drops: retry limit reached, sum(packetBytes)"
scalar Scenario.node[13].wlan[0].mac packetDropDuplicateDetected:count 0
attr interpolationmode none
attr source packetDropReasonIsDuplicateDetected(packetDropped)
attr title "packet drops: duplicate detected, count"
scalar Scenario.node[13].wlan[0].mac packetDropDuplicateDetected:sum(packetBytes) 0
attr interpolationmode none
attr source packetDropReasonIsDuplicateDetected(packetDropped)
attr title "packet drops: duplicate detected, sum(packetBytes)"
scalar Scenario.node[13].wlan[0].mac packetDropOther:count 0
attr interpolationmode none
attr source packetDropReasonIsOther(packetDropped)
attr title "packet drops: other, count"
scalar Scenario.node[13].wlan[0].mac packetDropOther:sum(packetBytes) 0
attr interpolationmode none
attr source packetDropReasonIsOther(packetDropped)
attr title "packet drops: other, sum(packetBytes)"
scalar Scenario.node[13].wlan[0].mac linkBroken:count 0
attr interpolationmode none
attr title "link breaks, count"
statistic Scenario.node[13].wlan[0].radio minSnir:histogram
field count 6
field mean 1374.0906888769
field stddev 2292.3982810226
field min 0.24408061612181
field max 5989.023948917
field sum 8244.5441332613
field sqrsum 37604200.721726
attr source minimumSnir(packetSentToUpper)
attr title "Min SNIR, histogram"
bin	-inf	0
bin	0	2
bin	100	0
bin	200	0
bin	300	0
bin	400	1
bin	500	0
bin	600	0
bin	700	1
bin	800	0
bin	900	1
bin	1000	0
bin	1100	0
bin	1200	0
bin	1300	0
bin	1400	0
bin	1500	0
bin	1600	0
bin	1700	0
bin	1800	0
bin	1900	0
bin	2000	0
bin	2100	0
bin	2200	0
bin	2300	0
bin	2400	0
bin	2500	0
bin	2600	0
bin	2700	0
bin	2800	0
bin	2900	0
bin	3000	0
bin	3100	0
bin	3200	0
bin	3300	0
bin	3400	0
bin	3500	0
bin	3600	0
bin	3700	0
bin	3800	0
bin	3900	0
bin	4000	0
bin	4100	0
bin	4200	0
bin	4300	0
bin	4400	0
bin	4500	0
bin	4600	0
bin	4700	0
bin	4800	0
bin	4900	0
bin	5000	0
bin	5100	0
bin	5200	0
bin	5300	0
bin	5400	0
bin	5500	0
bin	5600	0
bin	5700	0
bin	5800	0
bin	5900	1
bin	6000	0
bin	6100	0
bin	6200	0
bin	6300	0
bin	6400	0
bin	6500	0
bin	6600	0
bin	6700	0
bin	6800	0
bin	6900	0
bin	7000	0
bin	7100	0
bin	7200	0
bin	7300	0
bin	7400	0
bin	7500	0
statistic Scenario.node[13].wlan[0].radio packetErrorRate:histogram
field count 6
field mean 0.16666666666667
field stddev 0.40824829046386
field min 0
field max 1
field sum 1
field sqrsum 1
attr source packetErrorRate(packetSentToUpper)
attr title "Packet error rate, histogram"
bin	-inf	0
bin	0	5
bin	1	1
bin	2	0
statistic Scenario.node[13].wlan[0].radio bitErrorRate:histogram
field count 0
field mean nan
field stddev nan
field min nan
field max nan
field sum 0
field sqrsum 0
attr source bitErrorRate(packetSentToUpper)
attr title "Bit error rate, histogram"
bin	-inf	0
bin	0	0
bin	1	0
statistic Scenario.node[13].wlan[0].radio symbolErrorRate:histogram
field count 0
field mean nan
field stddev nan
field min nan
field max nan
field sum 0
field sqrsum 0
attr source symbolErrorRate(packetSentToUpper)
attr title "Symbol error rate, histogram"
bin	-inf	0
bin	0	0
bin	1	0
scalar Scenario.node[13].wlan[0].radio transmissionState:count 4
attr interpolationmode sample-hold
attr source transmissionStateChanged
attr title "Radio transmission state, count"
scalar Scenario.node[13].wlan[0].radio receptionState:count 17
attr interpolationmode sample-hold
attr source receptionStateChanged
attr title "Radio reception state, count"
scalar Scenario.node[13].wlan[0].radio radioMode:count 5
attr interpolationmode sample-hold
attr source radioModeChanged
attr title "Radio mode, count"
statistic Scenario.node[13].wlan[0].radio radioChannel:histogram
field count 1
field mean 3
field stddev nan
field min 3
field max 3
field sum 3
field sqrsum 9
attr interpolationmode sample-hold
attr source radioChannelChanged
attr title "Radio channel, histogram"
bin	-inf	0
bin	2	0
bin	3	1
bin	4	0
scalar Scenario.node[13].ipv4.ip packetDropAddressResolutionFailed:count 0
attr interpolationmode none
attr source packetDropReasonIsAddressResolutionFailed(packetDropped)
attr title "packet drop: address resolution failed, count"
scalar Scenario.node[13].ipv4.ip packetDropAddressResolutionFailed:sum(packetBytes) 0
attr interpolationmode none
attr source packetDropReasonIsAddressResolutionFailed(packetDropped)
attr title "packet drop: address resolution failed, sum(packetBytes)"
scalar Scenario.node[13].ipv4.ip packetDropHopLimitReached:count 0
attr interpolationmode none
attr source packetDropReasonIsHopLimitReached(packetDropped)
attr title "packet drop: hop limit reached, count"
scalar Scenario.node[13].ipv4.ip packetDropHopLimitReached:sum(packetBytes) 0
attr interpolationmode none
attr source packetDropReasonIsHopLimitReached(packetDropped)
attr title "packet drop: hop limit reached, sum(packetBytes)"
scalar Scenario.node[13].ipv4.ip packetDropForwardingDisabled:count 0
attr interpolationmode none
attr source packetDropReasonIsForwardingDisabled(packetDropped)
attr title "packet drop: forwarding disabled, count"
scalar Scenario.node[13].ipv4.ip packetDropForwardingDisabled:sum(packetBytes) 0
attr interpolationmode none
attr source packetDropReasonIsForwardingDisabled(packetDropped)
attr title "packet drop: forwarding disabled, sum(packetBytes)"
scalar Scenario.node[13].ipv4.ip packetDropNoInterfaceFound:count 0
attr interpolationmode none
attr source packetDropReasonIsNoInterfaceFound(packetDropped)
attr title "packet drop: no interface found, count"
scalar Scenario.node[13].ipv4.ip packetDropNoInterfaceFound:sum(packetBytes) 0
attr interpolationmode none
attr source packetDropReasonIsNoInterfaceFound(packetDropped)
attr title "packet drop: no interface found, sum(packetBytes)"
scalar Scenario.node[13].ipv4.ip packetDropNoRouteFound:count 0
attr interpolationmode none
attr source packetDropReasonIsNoRouteFound(packetDropped)
attr title "packet drop: no route found, count"
scalar Scenario.node[13].ipv4.ip packetDropNoRouteFound:sum(packetBytes) 0
attr interpolationmode none
attr source packetDropReasonIsNoRouteFound(packetDropped)
attr title "packet drop: no route found, sum(packetBytes)"
scalar Scenario.node[13].ipv4.ip packetDropUndefined:count 0
attr interpolationmode none
attr source packetDropReasonIsUndefined(packetDropped)
attr title "packet drop: undefined, count"
scalar Scenario.node[13].ipv4.ip packetDropUndefined:sum(packetBytes) 0
attr interpolationmode none
attr source packetDropReasonIsUndefined(packetDropped)
attr title "packet drop: undefined, sum(packetBytes)"
scalar Scenario.node[13].ipv4.arp arpReplySent:count 0
attr source arpReplySent
attr title "ARP replies sent, count"
scalar Scenario.node[13].ipv4.arp arpReplySent:sum(packetBytes) 0
attr source arpReplySent
attr title "ARP replies sent, sum(packetBytes)"
scalar Scenario.node[13].ipv4.arp arpRequestSent:count 0
attr source arpRequestSent
attr title "ARP request sent, count"
scalar Scenario.node[13].ipv4.arp arpRequestSent:sum(packetBytes) 0
attr source arpRequestSent
attr title "ARP request sent, sum(packetBytes)"
scalar Scenario.node[13].ipv4.arp arpResolutionFailed:count 0
attr title "ARP failed resolutions, count"
scalar Scenario.node[13].ipv4.arp arpResolutionCompleted:count 0
attr title "ARP completed resolutions, count"
scalar Scenario.node[13].ipv4.arp arpResolutionInitiated:count 0
attr title "ARP initiated resolutions, count"
scalar Scenario.node[13].udp packetReceived:count 6
attr interpolationmode none
attr source packetReceived
attr title "packets received, count"
scalar Scenario.node[13].udp packetReceived:sum(packetBytes) 648
attr interpolationmode none
attr source packetReceived
attr title "packets received, sum(packetBytes)"
scalar Scenario.node[13].udp packetSent:count 1
attr interpolationmode none
attr source packetSent
attr title "packets sent, count"
scalar Scenario.node[13].udp packetSent:sum(packetBytes) 108
attr interpolationmode none
attr source packetSent
attr title "packets sent, sum(packetBytes)"
scalar Scenario.node[13].udp passedUpPk:count 6
attr interpolationmode none
attr source packetSentToUpper
attr title "packets passed up, count"
scalar Scenario.node[13].udp droppedPkWrongPort:count 0
attr interpolationmode none
attr source packetDropReasonIsNoPortFound(packetDropped)
attr title "packets dropped (wrong port), count"
scalar Scenario.node[13].udp droppedPkBadChecksum:count 0
attr interpolationmode none
attr source packetDropReasonIsIncorrectlyReceived(packetDropped)
attr title "packets dropped (checksum error), count"
scalar Scenario.node[13].app[0] packetReceived:count 6
attr interpolationmode none
attr source packetReceived
attr title "packets received, count"
scalar Scenario.node[13].app[0] packetReceived:sum(packetBytes) 600
attr interpolationmode none
attr source packetReceived
attr title "packets received, sum(packetBytes)"
statistic Scenario.node[13].app[0] rcvdPkLifetime:stats
field count 6
field mean 0.00066381306133333
field stddev 0.00055975796520469
field min 0.000154335985
field max 0.001463962183
field sum 0.003982878368
field sqrsum 4.2105315804308e-006
attr interpolationmode none
attr source dataAge(packetReceived)
attr title "received packet lifetime, stats"
attr unit s
scalar Scenario.node[13].app[0] packetSent:count 1
attr interpolationmode none
attr source packetSent
attr title "packets sent, count"
scalar Scenario.node[13].app[0] packetSent:sum(packetBytes) 100
attr interpolationmode none
attr source packetSent
attr title "packets sent, sum(packetBytes)"
scalar Scenario.node[14].lo[0].lo rcvdPkFromHl:count 2
attr interpolationmode none
attr source packetReceivedFromUpper
attr title "packets received from higher layer, count"
scalar Scenario.node[14].lo[0].lo rcvdPkFromHl:sum(packetBytes) 256
attr interpolationmode none
attr source packetReceivedFromUpper
attr title "packets received from higher layer, sum(packetBytes)"
scalar Scenario.node[14].lo[0].lo passedUpPk:count 2
attr interpolationmode none
attr source packetSentToUpper
attr title "packets passed to higher layer, count"
scalar Scenario.node[14].lo[0].lo passedUpPk:sum(packetBytes) 256
attr interpolationmode none
attr source packetSentToUpper
attr title "packets passed to higher layer, sum(packetBytes)"
scalar Scenario.node[14].wlan[0].mac.dcf.channelAccess.pendingQueue packetPopped:count 2
attr interpolationmode none
attr title "packet popped, count"
scalar Scenario.node[14].wlan[0].mac.dcf.channelAccess.pendingQueue packetPopped:sum(packetBytes) 316
attr interpolationmode none
attr title "packet popped, sum(packetBytes)"
statistic Scenario.node[14].wlan[0].mac.dcf.channelAccess.pendingQueue queueingTime:histogram
field count 2
field mean 0.0009331598155
field stddev 0.0007047641809682
field min 0.000434816284
field max 0.001431503347
field sum 0.001866319631
field sqrsum 2.2382670333038e-006
attr interpolationmode none
attr source queueingTime(packetPopped)
attr title "queueing times, histogram"
attr unit s
bin	-inf	0
bin	0.00018	0
bin	0.0002	0
bin	0.00022	0
bin	0.00024	0
bin	0.00026	0
bin	0.00028	0
bin	0.0003	0
bin	0.00032	0
bin	0.00034	0
bin	0.00036	0
bin	0.00038	0
bin	0.0004	0
bin	0.00042	1
bin	0.00044	0
bin	0.00046	0
bin	0.00048	0
bin	0.0005	0
bin	0.00052	0
bin	0.00054	0
bin	0.00056	0
bin	0.00058	0
bin	0.0006	0
bin	0.00062	0
bin	0.00064	0
bin	0.00066	0
bin	0.00068	0
bin	0.0007	0
bin	0.00072	0
bin	0.00074	0
bin	0.00076	0
bin	0.00078	0
bin	0.0008	0
bin	0.00082	0
bin	0.00084	0
bin	0.00086	0
bin	0.00088	0
bin	0.0009	0
bin	0.00092	0
bin	0.00094	0
bin	0.00096	0
bin	0.00098	0
bin	0.001	0
bin	0.00102	0
bin	0.00104	0
bin	0.00106	0
bin	0.00108	0
bin	0.0011	0
bin	0.00112	0
bin	0.00114	0
bin	0.00116	0
bin	0.00118	0
bin	0.0012	0
bin	0.00122	0
bin	0.00124	0
bin	0.00126	0
bin	0.00128	0
bin	0.0013	0
bin	0.00132	0
bin	0.00134	0
bin	0.00136	0
bin	0.00138	0
bin	0.0014	0
bin	0.00142	1
bin	0.00144	0
bin	0.00146	0
bin	0.00148	0
bin	0.0015	0
bin	0.00152	0
bin	0.00154	0
bin	0.00156	0
bin	0.00158	0
bin	0.0016	0
bin	0.00162	0
bin	0.00164	0
bin	0.00166	0
bin	0.00168	0
bin	0.0017	0
scalar Scenario.node[14].wlan[0].mac.dcf.channelAccess.pendingQueue queueLength:max 1
attr interpolationmode sample-hold
attr source "count(packetPushed) - count(packetPopped) - count(packetRemoved) - count(packetDropped)"
attr title "queue length, max"
scalar Scenario.node[14].wlan[0].mac.dcf.channelAccess.pendingQueue queueLength:timeavg 6.8868284186936e-005
attr interpolationmode sample-hold
attr source "count(packetPushed) - count(packetPopped) - count(packetRemoved) - count(packetDropped)"
attr title "queue length, timeavg"
scalar Scenario.node[14].wlan[0].mac.dcf.channelAccess.pendingQueue packetPushed:count 2
attr interpolationmode none
attr title "packet pushed, count"
scalar Scenario.node[14].wlan[0].mac.dcf.channelAccess.pendingQueue packetPushed:sum(packetBytes) 316
attr interpolationmode none
attr title "packet pushed, sum(packetBytes)"
scalar Scenario.node[14].wlan[0].mac.dcf.channelAccess.pendingQueue packetDropQueueOverflow:count 0
attr interpolationmode none
attr source packetDropReasonIsQueueOverflow(packetDropped)
attr title "packet drops: queue overflow, count"
scalar Scenario.node[14].wlan[0].mac.dcf.channelAccess.pendingQueue packetDropQueueOverflow:sum(packetBytes) 0
attr interpolationmode none
attr source packetDropReasonIsQueueOverflow(packetDropped)
attr title "packet drops: queue overflow, sum(packetBytes)"
scalar Scenario.node[14].wlan[0].mac.dcf.channelAccess.pendingQueue packetRemoved:count 0
attr interpolationmode none
attr title "packets removed, count"
scalar Scenario.node[14].wlan[0].mac.dcf.channelAccess.pendingQueue packetRemoved:sum(packetBytes) 0
attr interpolationmode none
attr title "packets removed, sum(packetBytes)"
statistic Scenario.node[14].wlan[0].mac.dcf.channelAccess.inProgressFrames queueingTime:histogram
field count 2
field mean 0.000152
field stddev 0
field min 0.000152
field max 0.000152
field sum 0.000304
field sqrsum 4.6208e-008
attr interpolationmode none
attr source queueingTime(packetDequeued)
attr title "queueing times, histogram"
bin	-inf	0
bin	0	2
bin	0.01	0
bin	0.02	0
bin	0.03	0
bin	0.04	0
bin	0.05	0
bin	0.06	0
bin	0.07	0
bin	0.08	0
bin	0.09	0
bin	0.1	0
bin	0.11	0
bin	0.12	0
bin	0.13	0
bin	0.14	0
bin	0.15	0
bin	0.16	0
bin	0.17	0
bin	0.18	0
bin	0.19	0
bin	0.2	0
bin	0.21	0
bin	0.22	0
bin	0.23	0
bin	0.24	0
bin	0.25	0
bin	0.26	0
bin	0.27	0
bin	0.28	0
bin	0.29	0
bin	0.3	0
bin	0.31	0
bin	0.32	0
bin	0.33	0
bin	0.34	0
bin	0.35	0
bin	0.36	0
bin	0.37	0
bin	0.38	0
bin	0.39	0
bin	0.4	0
bin	0.41	0
bin	0.42	0
bin	0.43	0
bin	0.44	0
bin	0.45	0
bin	0.46	0
bin	0.47	0
bin	0.48	0
bin	0.49	0
bin	0.5	0
bin	0.51	0
scalar Scenario.node[14].wlan[0].mac.dcf.channelAccess.inProgressFrames queueLength:max 1
attr interpolationmode sample-hold
attr source "count(packetEnqueued) - count(packetDequeued)"
attr title "queue length, max"
scalar Scenario.node[14].wlan[0].mac.dcf.channelAccess.inProgressFrames queueLength:timeavg 1.1218370106646e-005
attr interpolationmode sample-hold
attr source "count(packetEnqueued) - count(packetDequeued)"
attr title "queue length, timeavg"
scalar Scenario.node[14].wlan[0].mac.dcf.channelAccess.contention stateChanged:count 78
attr interpolationmode none
attr title "contention state changed, count"
scalar Scenario.node[14].wlan[0].mac.dcf.channelAccess.contention channelAccessGranted:count 2
attr title "channel access granted, count"
scalar Scenario.node[14].wlan[0].mac.dcf.channelAccess channelOwnershipChanged:count 4
attr interpolationmode sample-hold
attr title "channel ownership, count"
scalar Scenario.node[14].wlan[0].mac.dcf.originatorMacDataService packetAggregated:count 0
attr title "packets aggregated, count"
scalar Scenario.node[14].wlan[0].mac.dcf.originatorMacDataService packetFragmented:count 0
attr title "packets fragmented, count"
scalar Scenario.node[14].wlan[0].mac.dcf.recipientMacDataService packetDropDuplicateDetected:count 0
attr interpolationmode none
attr source packetDropReasonIsDuplicateDetected(packetDropped)
attr title "packet drops: duplicate detected, count"
scalar Scenario.node[14].wlan[0].mac.dcf.recipientMacDataService packetDropDuplicateDetected:sum(packetBytes) 0
attr interpolationmode none
attr source packetDropReasonIsDuplicateDetected(packetDropped)
attr title "packet drops: duplicate detected, sum(packetBytes)"
scalar Scenario.node[14].wlan[0].mac.dcf.recipientMacDataService packetDeaggregated:count 0
attr title "packets deaggregated, count"
scalar Scenario.node[14].wlan[0].mac.dcf.recipientMacDataService packetDefragmented:count 12
attr title "packets defragmented, count"
scalar Scenario.node[14].wlan[0].mac.dcf.recoveryProcedure retryLimitReached:count 0
attr title "retry limit reached, count"
scalar Scenario.node[14].wlan[0].mac.dcf packetReceivedFromPeer:count 12
attr interpolationmode none
attr title "packets received, count"
scalar Scenario.node[14].wlan[0].mac.dcf packetReceivedFromPeer:sum(packetBytes) 1896
attr interpolationmode none
attr title "packets received, sum(packetBytes)"
scalar Scenario.node[14].wlan[0].mac.dcf packetReceivedFromPeerUnicast:count 0
attr interpolationmode none
attr source ieee80211Unicast(packetReceivedFromPeer)
attr title "packets received: unicast, count"
scalar Scenario.node[14].wlan[0].mac.dcf packetReceivedFromPeerUnicast:sum(packetBytes) 0
attr interpolationmode none
attr source ieee80211Unicast(packetReceivedFromPeer)
attr title "packets received: unicast, sum(packetBytes)"
scalar Scenario.node[14].wlan[0].mac.dcf packetReceivedFromPeerMulticast:count 12
attr interpolationmode none
attr source ieee80211Multicast(packetReceivedFromPeer)
attr title "packets received: multicast, count"
scalar Scenario.node[14].wlan[0].mac.dcf packetReceivedFromPeerMulticast:sum(packetBytes) 1896
attr interpolationmode none
attr source ieee80211Multicast(packetReceivedFromPeer)
attr title "packets received: multicast, sum(packetBytes)"
scalar Scenario.node[14].wlan[0].mac.dcf packetReceivedFromPeerBroadcast:count 0
attr interpolationmode none
attr source ieee80211Broadcast(packetReceivedFromPeer)
attr title "packets received: broadcast, count"
scalar Scenario.node[14].wlan[0].mac.dcf packetReceivedFromPeerBroadcast:sum(packetBytes) 0
attr interpolationmode none
attr source ieee80211Broadcast(packetReceivedFromPeer)
attr title "packets received: broadcast, sum(packetBytes)"
scalar Scenario.node[14].wlan[0].mac.dcf packetReceivedFromPeerWithRetry:count 0
attr interpolationmode none
attr source ieee80211Retry(packetReceivedFromPeer)
attr title "packets received: with retry, count"
scalar Scenario.node[14].wlan[0].mac.dcf packetReceivedFromPeerWithRetry:sum(packetBytes) 0
attr interpolationmode none
attr source ieee80211Retry(packetReceivedFromPeer)
attr title "packets received: with retry, sum(packetBytes)"
scalar Scenario.node[14].wlan[0].mac.dcf packetReceivedFromPeerWithoutRetry:count 12
attr interpolationmode none
attr source ieee80211NotRetry(packetReceivedFromPeer)
attr title "packets received: without retry, count"
scalar Scenario.node[14].wlan[0].mac.dcf packetReceivedFromPeerWithoutRetry:sum(packetBytes) 1896
attr interpolationmode none
attr source ieee80211NotRetry(packetReceivedFromPeer)
attr title "packets received: without retry, sum(packetBytes)"
scalar Scenario.node[14].wlan[0].mac.dcf packetSentToPeer:count 2
attr interpolationmode none
attr title "packets sent, count"
scalar Scenario.node[14].wlan[0].mac.dcf packetSentToPeer:sum(packetBytes) 316
attr interpolationmode none
attr title "packets sent, sum(packetBytes)"
scalar Scenario.node[14].wlan[0].mac.dcf packetSentToPeerUnicast:count 0
attr interpolationmode none
attr source ieee80211Unicast(packetSentToPeer)
attr title "packets sent: unicast, count"
scalar Scenario.node[14].wlan[0].mac.dcf packetSentToPeerUnicast:sum(packetBytes) 0
attr interpolationmode none
attr source ieee80211Unicast(packetSentToPeer)
attr title "packets sent: unicast, sum(packetBytes)"
scalar Scenario.node[14].wlan[0].mac.dcf packetSentToPeerMulticast:count 2
attr interpolationmode none
attr source ieee80211Multicast(packetSentToPeer)
attr title "packets sent: multicast, count"
scalar Scenario.node[14].wlan[0].mac.dcf packetSentToPeerMulticast:sum(packetBytes) 316
attr interpolationmode none
attr source ieee80211Multicast(packetSentToPeer)
attr title "packets sent: multicast, sum(packetBytes)"
scalar Scenario.node[14].wlan[0].mac.dcf packetSentToPeerBroadcast:count 0
attr interpolationmode none
attr source ieee80211Broadcast(packetSentToPeer)
attr title "packets sent: broadcast , count"
scalar Scenario.node[14].wlan[0].mac.dcf packetSentToPeerBroadcast:sum(packetBytes) 0
attr interpolationmode none
attr source ieee80211Broadcast(packetSentToPeer)
attr title "packets sent: broadcast , sum(packetBytes)"
scalar Scenario.node[14].wlan[0].mac.dcf packetSentToPeerWithRetry:count 0
attr interpolationmode none
attr source ieee80211Retry(packetSentToPeer)
attr title "packets sent: with retry, count"
scalar Scenario.node[14].wlan[0].mac.dcf packetSentToPeerWithRetry:sum(packetBytes) 0
attr interpolationmode none
attr source ieee80211Retry(packetSentToPeer)
attr title "packets sent: with retry, sum(packetBytes)"
scalar Scenario.node[14].wlan[0].mac.dcf packetSentToPeerWithoutRetry:count 2
attr interpolationmode none
attr source ieee80211NotRetry(packetSentToPeer)
attr title "packets sent: without retry, count"
scalar Scenario.node[14].wlan[0].mac.dcf packetSentToPeerWithoutRetry:sum(packetBytes) 316
attr interpolationmode none
attr source ieee80211NotRetry(packetSentToPeer)
attr title "packets sent: without retry, sum(packetBytes)"
scalar Scenario.node[14].wlan[0].mac.dcf packetDrop:count 0
attr interpolationmode none
attr source packetDropped
attr title "packet drops, count"
scalar Scenario.node[14].wlan[0].mac.dcf packetDrop:sum(packetBytes) 0
attr interpolationmode none
attr source packetDropped
attr title "packet drops, sum(packetBytes)"
scalar Scenario.node[14].wlan[0].mac.dcf packetDropNotAddressedToUs:count 0
attr interpolationmode none
attr source packetDropReasonIsNotAddressedToUs(packetDropped)
attr title "packet drops: not addressed to us, count"
scalar Scenario.node[14].wlan[0].mac.dcf packetDropNotAddressedToUs:sum(packetBytes) 0
attr interpolationmode none
attr source packetDropReasonIsNotAddressedToUs(packetDropped)
attr title "packet drops: not addressed to us, sum(packetBytes)"
scalar Scenario.node[14].wlan[0].mac.dcf packetDropQueueOverflow:count 0
attr interpolationmode none
attr source packetDropReasonIsQueueOverflow(packetDropped)
attr title "packet drops: queue overflow, count"
scalar Scenario.node[14].wlan[0].mac.dcf packetDropQueueOverflow:sum(packetBytes) 0
attr interpolationmode none
attr source packetDropReasonIsQueueOverflow(packetDropped)
attr title "packet drops: queue overflow, sum(packetBytes)"
scalar Scenario.node[14].wlan[0].mac.dcf packetDropRetryLimitReached:count 0
attr interpolationmode none
attr source packetDropReasonIsRetryLimitReached(packetDropped)
attr title "packet drops: retry limit reached, count"
scalar Scenario.node[14].wlan[0].mac.dcf packetDropRetryLimitReached:sum(packetBytes) 0
attr interpolationmode none
attr source packetDropReasonIsRetryLimitReached(packetDropped)
attr title "packet drops: retry limit reached, sum(packetBytes)"
scalar Scenario.node[14].wlan[0].mac.dcf linkBroken:count 0
attr interpolationmode none
attr title "link breaks, count"
scalar Scenario.node[14].wlan[0].mac.dcf frameSequenceFinished:count 2
attr title "finished frame sequences, count"
statistic Scenario.node[14].wlan[0].mac.dcf frameSequenceDuration:histogram
field count 2
field mean 0.000152
field stddev 0
field min 0.000152
field max 0.000152
field sum 0.000304
field sqrsum 4.6208e-008
attr source frameSequenceDuration(frameSequenceFinished)
attr title "frame sequence durations, histogram"
bin	-inf	0
bin	0	2
bin	0.01	0
bin	0.02	0
bin	0.03	0
bin	0.04	0
bin	0.05	0
bin	0.06	0
bin	0.07	0
bin	0.08	0
bin	0.09	0
bin	0.1	0
bin	0.11	0
bin	0.12	0
bin	0.13	0
bin	0.14	0
bin	0.15	0
bin	0.16	0
bin	0.17	0
bin	0.18	0
bin	0.19	0
bin	0.2	0
bin	0.21	0
bin	0.22	0
bin	0.23	0
bin	0.24	0
bin	0.25	0
bin	0.26	0
bin	0.27	0
bin	0.28	0
bin	0.29	0
bin	0.3	0
bin	0.31	0
bin	0.32	0
bin	0.33	0
bin	0.34	0
bin	0.35	0
bin	0.36	0
bin	0.37	0
bin	0.38	0
bin	0.39	0
bin	0.4	0
bin	0.41	0
bin	0.42	0
bin	0.43	0
bin	0.44	0
bin	0.45	0
bin	0.46	0
bin	0.47	0
bin	0.48	0
bin	0.49	0
bin	0.5	0
bin	0.51	0
statistic Scenario.node[14].wlan[0].mac.dcf frameSequenceNumPackets:histogram
field count 2
field mean 1
field stddev 0
field min 1
field max 1
field sum 2
field sqrsum 2
attr source frameSequenceNumPackets(frameSequenceFinished)
attr title "frame sequences: number of packets, histogram"
bin	-inf	0
bin	0	0
bin	1	2
bin	2	0
scalar Scenario.node[14].wlan[0].mac packetReceivedFromLower:count 14
attr interpolationmode none
attr title "packets received from lower layer, count"
scalar Scenario.node[14].wlan[0].mac packetReceivedFromLower:sum(packetBytes) 2212
attr interpolationmode none
attr title "packets received from lower layer, sum(packetBytes)"
scalar Scenario.node[14].wlan[0].mac packetSentToLower:count 2
attr interpolationmode none
attr title "packets sent to lower layer, count"
scalar Scenario.node[14].wlan[0].mac packetSentToLower:sum(packetBytes) 316
attr interpolationmode none
attr title "packets sent to lower layer, sum(packetBytes)"
scalar Scenario.node[14].wlan[0].mac packetReceivedFromUpper:count 2
attr interpolationmode none
attr title "packets received from upper layer, count"
scalar Scenario.node[14].wlan[0].mac packetReceivedFromUpper:sum(packetBytes) 260
attr interpolationmode none
attr title "packets received from upper layer, sum(packetBytes)"
scalar Scenario.node[14].wlan[0].mac packetSentToUpper:count 12
attr interpolationmode none
attr title "packets sent to upper layer, count"
scalar Scenario.node[14].wlan[0].mac packetSentToUpper:sum(packetBytes) 1560
attr interpolationmode none
attr title "packets sent to upper layer, sum(packetBytes)"
scalar Scenario.node[14].wlan[0].mac packetDrop:count 2
attr interpolationmode none
attr source packetDropped
attr title "packet drops, count"
scalar Scenario.node[14].wlan[0].mac packetDrop:sum(packetBytes) 316
attr interpolationmode none
attr source packetDropped
attr title "packet drops, sum(packetBytes)"
scalar Scenario.node[14].wlan[0].mac packetDropIncorrectlyReceived:count 2
attr interpolationmode none
attr source packetDropReasonIsIncorrectlyReceived(packetDropped)
attr title "packet drops: incorrectly received, count"
scalar Scenario.node[14].wlan[0].mac packetDropIncorrectlyReceived:sum(packetBytes) 316
attr interpolationmode none
attr source packetDropReasonIsIncorrectlyReceived(packetDropped)
attr title "packet drops: incorrectly received, sum(packetBytes)"
scalar Scenario.node[14].wlan[0].mac packetDropNotAddressedToUs:count 0
attr interpolationmode none
attr source packetDropReasonIsNotAddressedToUs(packetDropped)
attr title "packet drops: not addressed to us, count"
scalar Scenario.node[14].wlan[0].mac packetDropNotAddressedToUs:sum(packetBytes) 0
attr interpolationmode none
attr source packetDropReasonIsNotAddressedToUs(packetDropped)
attr title "packet drops: not addressed to us, sum(packetBytes)"
scalar Scenario.node[14].wlan[0].mac packetDropQueueOverflow:count 0
attr interpolationmode none
attr source packetDropReasonIsQueueOverflow(packetDropped)
attr title "packet drops: queue overflow, count"
scalar Scenario.node[14].wlan[0].mac packetDropQueueOverflow:sum(packetBytes) 0
attr interpolationmode none
attr source packetDropReasonIsQueueOverflow(packetDropped)
attr title "packet drops: queue overflow, sum(packetBytes)"
scalar Scenario.node[14].wlan[0].mac packetDropRetryLimitReached:count 0
attr interpolationmode none
attr source packetDropReasonIsRetryLimitReached(packetDropped)
attr title "packet drops: retry limit reached, count"
scalar Scenario.node[14].wlan[0].mac packetDropRetryLimitReached:sum(packetBytes) 0
attr interpolationmode none
attr source packetDropReasonIsRetryLimitReached(packetDropped)
attr title "packet drops: retry limit reached, sum(packetBytes)"
scalar Scenario.node[14].wlan[0].mac packetDropDuplicateDetected:count 0
attr interpolationmode none
attr source packetDropReasonIsDuplicateDetected(packetDropped)
attr title "packet drops: duplicate detected, count"
scalar Scenario.node[14].wlan[0].mac packetDropDuplicateDetected:sum(packetBytes) 0
attr interpolationmode none
attr source packetDropReasonIsDuplicateDetected(packetDropped)
attr title "packet drops: duplicate detected, sum(packetBytes)"
scalar Scenario.node[14].wlan[0].mac packetDropOther:count 0
attr interpolationmode none
attr source packetDropReasonIsOther(packetDropped)
attr title "packet drops: other, count"
scalar Scenario.node[14].wlan[0].mac packetDropOther:sum(packetBytes) 0
attr interpolationmode none
attr source packetDropReasonIsOther(packetDropped)
attr title "packet drops: other, sum(packetBytes)"
scalar Scenario.node[14].wlan[0].mac linkBroken:count 0
attr interpolationmode none
attr title "link breaks, count"
statistic Scenario.node[14].wlan[0].radio minSnir:histogram
field count 14
field mean 420.34237692235
field stddev 780.68898290901
field min 1.2856792337679
field max 3062.0684348936
field sum 5884.7932769129
field sqrsum 10396806.738176
attr source minimumSnir(packetSentToUpper)
attr title "Min SNIR, histogram"
bin	-inf	0
bin	0	2
bin	50	1
bin	100	4
bin	150	0
bin	200	1
bin	250	0
bin	300	1
bin	350	2
bin	400	0
bin	450	1
bin	500	0
bin	550	1
bin	600	0
bin	650	0
bin	700	0
bin	750	0
bin	800	0
bin	850	0
bin	900	0
bin	950	0
bin	1000	0
bin	1050	0
bin	1100	0
bin	1150	0
bin	1200	0
bin	1250	0
bin	1300	0
bin	1350	0
bin	1400	0
bin	1450	0
bin	1500	0
bin	1550	0
bin	1600	0
bin	1650	0
bin	1700	0
bin	1750	0
bin	1800	0
bin	1850	0
bin	1900	0
bin	1950	0
bin	2000	0
bin	2050	0
bin	2100	0
bin	2150	0
bin	2200	0
bin	2250	0
bin	2300	0
bin	2350	0
bin	2400	0
bin	2450	0
bin	2500	0
bin	2550	0
bin	2600	0
bin	2650	0
bin	2700	0
bin	2750	0
bin	2800	0
bin	2850	0
bin	2900	0
bin	2950	0
bin	3000	0
bin	3050	1
bin	3100	0
bin	3150	0
bin	3200	0
bin	3250	0
bin	3300	0
bin	3350	0
bin	3400	0
bin	3450	0
bin	3500	0
bin	3550	0
bin	3600	0
bin	3650	0
bin	3700	0
bin	3750	0
bin	3800	0
bin	3850	0
statistic Scenario.node[14].wlan[0].radio packetErrorRate:histogram
field count 14
field mean 0.14285714288534
field stddev 0.36313651958933
field min 0
field max 1
field sum 2.0000000003948
field sqrsum 2
attr source packetErrorRate(packetSentToUpper)
attr title "Packet error rate, histogram"
bin	-inf	0
bin	0	12
bin	0.02	0
bin	0.04	0
bin	0.06	0
bin	0.08	0
bin	0.1	0
bin	0.12	0
bin	0.14	0
bin	0.16	0
bin	0.18	0
bin	0.2	0
bin	0.22	0
bin	0.24	0
bin	0.26	0
bin	0.28	0
bin	0.3	0
bin	0.32	0
bin	0.34	0
bin	0.36	0
bin	0.38	0
bin	0.4	0
bin	0.42	0
bin	0.44	0
bin	0.46	0
bin	0.48	0
bin	0.5	0
bin	0.52	0
bin	0.54	0
bin	0.56	0
bin	0.58	0
bin	0.6	0
bin	0.62	0
bin	0.64	0
bin	0.66	0
bin	0.68	0
bin	0.7	0
bin	0.72	0
bin	0.74	0
bin	0.76	0
bin	0.78	0
bin	0.8	0
bin	0.82	0
bin	0.84	0
bin	0.86	0
bin	0.88	0
bin	0.9	0
bin	0.92	0
bin	0.94	0
bin	0.96	0
bin	0.98	0
bin	1	2
bin	1.02	0
bin	1.04	0
[...]
attr interpolationmode none
attr source packetDropReasonIsDuplicateDetected(packetDropped)
attr title "packet drops: duplicate detected, count"
scalar Scenario.node[54].wlan[0].mac.dcf.recipientMacDataService packetDropDuplicateDetected:sum(packetBytes) 0
attr interpolationmode none
attr source packetDropReasonIsDuplicateDetected(packetDropped)
attr title "packet drops: duplicate detected, sum(packetBytes)"
scalar Scenario.node[54].wlan[0].mac.dcf.recipientMacDataService packetDeaggregated:count 0
attr title "packets deaggregated, count"
scalar Scenario.node[54].wlan[0].mac.dcf.recipientMacDataService packetDefragmented:count 0
attr title "packets defragmented, count"
scalar Scenario.node[54].wlan[0].mac.dcf.recoveryProcedure retryLimitReached:count 0
attr title "retry limit reached, count"
scalar Scenario.node[54].wlan[0].mac.dcf packetReceivedFromPeer:count 0
attr interpolationmode none
attr title "packets received, count"
scalar Scenario.node[54].wlan[0].mac.dcf packetReceivedFromPeer:sum(packetBytes) 0
attr interpolationmode none
attr title "packets received, sum(packetBytes)"
scalar Scenario.node[54].wlan[0].mac.dcf packetReceivedFromPeerUnicast:count 0
attr interpolationmode none
attr source ieee80211Unicast(packetReceivedFromPeer)
attr title "packets received: unicast, count"
scalar Scenario.node[54].wlan[0].mac.dcf packetReceivedFromPeerUnicast:sum(packetBytes) 0
attr interpolationmode none
attr source ieee80211Unicast(packetReceivedFromPeer)
attr title "packets received: unicast, sum(packetBytes)"
scalar Scenario.node[54].wlan[0].mac.dcf packetReceivedFromPeerMulticast:count 0
attr interpolationmode none
attr source ieee80211Multicast(packetReceivedFromPeer)
attr title "packets received: multicast, count"
scalar Scenario.node[54].wlan[0].mac.dcf packetReceivedFromPeerMulticast:sum(packetBytes) 0
attr interpolationmode none
attr source ieee80211Multicast(packetReceivedFromPeer)
attr title "packets received: multicast, sum(packetBytes)"
scalar Scenario.node[54].wlan[0].mac.dcf packetReceivedFromPeerBroadcast:count 0
attr interpolationmode none
attr source ieee80211Broadcast(packetReceivedFromPeer)
attr title "packets received: broadcast, count"
scalar Scenario.node[54].wlan[0].mac.dcf packetReceivedFromPeerBroadcast:sum(packetBytes) 0
attr interpolationmode none
attr source ieee80211Broadcast(packetReceivedFromPeer)
attr title "packets received: broadcast, sum(packetBytes)"
scalar Scenario.node[54].wlan[0].mac.dcf packetReceivedFromPeerWithRetry:count 0
attr interpolationmode none
attr source ieee80211Retry(packetReceivedFromPeer)
attr title "packets received: with retry, count"
scalar Scenario.node[54].wlan[0].mac.dcf packetReceivedFromPeerWithRetry:sum(packetBytes) 0
attr interpolationmode none
attr source ieee80211Retry(packetReceivedFromPeer)
attr title "packets received: with retry, sum(packetBytes)"
scalar Scenario.node[54].wlan[0].mac.dcf packetReceivedFromPeerWithoutRetry:count 0
attr interpolationmode none
attr source ieee80211NotRetry(packetReceivedFromPeer)
attr title "packets received: without retry, count"
scalar Scenario.node[54].wlan[0].mac.dcf packetReceivedFromPeerWithoutRetry:sum(packetBytes) 0
attr interpolationmode none
attr source ieee80211NotRetry(packetReceivedFromPeer)
attr title "packets received: without retry, sum(packetBytes)"
scalar Scenario.node[54].wlan[0].mac.dcf packetSentToPeer:count 0
attr interpolationmode none
attr title "packets sent, count"
scalar Scenario.node[54].wlan[0].mac.dcf packetSentToPeer:sum(packetBytes) 0
attr interpolationmode none
attr title "packets sent, sum(packetBytes)"
scalar Scenario.node[54].wlan[0].mac.dcf packetSentToPeerUnicast:count 0
attr interpolationmode none
attr source ieee80211Unicast(packetSentToPeer)
attr title "packets sent: unicast, count"
scalar Scenario.node[54].wlan[0].mac.dcf packetSentToPeerUnicast:sum(packetBytes) 0
attr interpolationmode none
attr source ieee80211Unicast(packetSentToPeer)
attr title "packets sent: unicast, sum(packetBytes)"
scalar Scenario.node[54].wlan[0].mac.dcf packetSentToPeerMulticast:count 0
attr interpolationmode none
attr source ieee80211Multicast(packetSentToPeer)
attr title "packets sent: multicast, count"
scalar Scenario.node[54].wlan[0].mac.dcf packetSentToPeerMulticast:sum(packetBytes) 0
attr interpolationmode none
attr source ieee80211Multicast(packetSentToPeer)
attr title "packets sent: multicast, sum(packetBytes)"
scalar Scenario.node[54].wlan[0].mac.dcf packetSentToPeerBroadcast:count 0
attr interpolationmode none
attr source ieee80211Broadcast(packetSentToPeer)
attr title "packets sent: broadcast , count"
scalar Scenario.node[54].wlan[0].mac.dcf packetSentToPeerBroadcast:sum(packetBytes) 0
attr interpolationmode none
attr source ieee80211Broadcast(packetSentToPeer)
attr title "packets sent: broadcast , sum(packetBytes)"
scalar Scenario.node[54].wlan[0].mac.dcf packetSentToPeerWithRetry:count 0
attr interpolationmode none
attr source ieee80211Retry(packetSentToPeer)
attr title "packets sent: with retry, count"
scalar Scenario.node[54].wlan[0].mac.dcf packetSentToPeerWithRetry:sum(packetBytes) 0
attr interpolationmode none
attr source ieee80211Retry(packetSentToPeer)
attr title "packets sent: with retry, sum(packetBytes)"
scalar Scenario.node[54].wlan[0].mac.dcf packetSentToPeerWithoutRetry:count 0
attr interpolationmode none
attr source ieee80211NotRetry(packetSentToPeer)
attr title "packets sent: without retry, count"
scalar Scenario.node[54].wlan[0].mac.dcf packetSentToPeerWithoutRetry:sum(packetBytes) 0
attr interpolationmode none
attr source ieee80211NotRetry(packetSentToPeer)
attr title "packets sent: without retry, sum(packetBytes)"
scalar Scenario.node[54].wlan[0].mac.dcf packetDrop:count 0
attr interpolationmode none
attr source packetDropped
attr title "packet drops, count"
scalar Scenario.node[54].wlan[0].mac.dcf packetDrop:sum(packetBytes) 0
attr interpolationmode none
attr source packetDropped
attr title "packet drops, sum(packetBytes)"
scalar Scenario.node[54].wlan[0].mac.dcf packetDropNotAddressedToUs:count 0
attr interpolationmode none
attr source packetDropReasonIsNotAddressedToUs(packetDropped)
attr title "packet drops: not addressed to us, count"
scalar Scenario.node[54].wlan[0].mac.dcf packetDropNotAddressedToUs:sum(packetBytes) 0
attr interpolationmode none
attr source packetDropReasonIsNotAddressedToUs(packetDropped)
attr title "packet drops: not addressed to us, sum(packetBytes)"
scalar Scenario.node[54].wlan[0].mac.dcf packetDropQueueOverflow:count 0
attr interpolationmode none
attr source packetDropReasonIsQueueOverflow(packetDropped)
attr title "packet drops: queue overflow, count"
scalar Scenario.node[54].wlan[0].mac.dcf packetDropQueueOverflow:sum(packetBytes) 0
attr interpolationmode none
attr source packetDropReasonIsQueueOverflow(packetDropped)
attr title "packet drops: queue overflow, sum(packetBytes)"
scalar Scenario.node[54].wlan[0].mac.dcf packetDropRetryLimitReached:count 0
attr interpolationmode none
attr source packetDropReasonIsRetryLimitReached(packetDropped)
attr title "packet drops: retry limit reached, count"
scalar Scenario.node[54].wlan[0].mac.dcf packetDropRetryLimitReached:sum(packetBytes) 0
attr interpolationmode none
attr source packetDropReasonIsRetryLimitReached(packetDropped)
attr title "packet drops: retry limit reached, sum(packetBytes)"
scalar Scenario.node[54].wlan[0].mac.dcf linkBroken:count 0
attr interpolationmode none
attr title "link breaks, count"
scalar Scenario.node[54].wlan[0].mac.dcf frameSequenceFinished:count 0
attr title "finished frame sequences, count"
statistic Scenario.node[54].wlan[0].mac.dcf frameSequenceDuration:histogram
field count 0
field mean nan
field stddev nan
field min nan
field max nan
field sum 0
field sqrsum 0
attr source frameSequenceDuration(frameSequenceFinished)
attr title "frame sequence durations, histogram"
bin	-inf	0
bin	0	0
bin	1	0
statistic Scenario.node[54].wlan[0].mac.dcf frameSequenceNumPackets:histogram
field count 0
field mean nan
field stddev nan
field min nan
field max nan
field sum 0
field sqrsum 0
attr source frameSequenceNumPackets(frameSequenceFinished)
attr title "frame sequences: number of packets, histogram"
bin	-inf	0
bin	0	0
bin	1	0
scalar Scenario.node[54].wlan[0].mac packetReceivedFromLower:count 0
attr interpolationmode none
attr title "packets received from lower layer, count"
scalar Scenario.node[54].wlan[0].mac packetReceivedFromLower:sum(packetBytes) 0
attr interpolationmode none
attr title "packets received from lower layer, sum(packetBytes)"
scalar Scenario.node[54].wlan[0].mac packetSentToLower:count 0
attr interpolationmode none
attr title "packets sent to lower layer, count"
scalar Scenario.node[54].wlan[0].mac packetSentToLower:sum(packetBytes) 0
attr interpolationmode none
attr title "packets sent to lower layer, sum(packetBytes)"
scalar Scenario.node[54].wlan[0].mac packetReceivedFromUpper:count 0
attr interpolationmode none
attr title "packets received from upper layer, count"
scalar Scenario.node[54].wlan[0].mac packetReceivedFromUpper:sum(packetBytes) 0
attr interpolationmode none
attr title "packets received from upper layer, sum(packetBytes)"
scalar Scenario.node[54].wlan[0].mac packetSentToUpper:count 0
attr interpolationmode none
attr title "packets sent to upper layer, count"
scalar Scenario.node[54].wlan[0].mac packetSentToUpper:sum(packetBytes) 0
attr interpolationmode none
attr title "packets sent to upper layer, sum(packetBytes)"
scalar Scenario.node[54].wlan[0].mac packetDrop:count 0
attr interpolationmode none
attr source packetDropped
attr title "packet drops, count"
scalar Scenario.node[54].wlan[0].mac packetDrop:sum(packetBytes) 0
attr interpolationmode none
attr source packetDropped
attr title "packet drops, sum(packetBytes)"
scalar Scenario.node[54].wlan[0].mac packetDropIncorrectlyReceived:count 0
attr interpolationmode none
attr source packetDropReasonIsIncorrectlyReceived(packetDropped)
attr title "packet drops: incorrectly received, count"
scalar Scenario.node[54].wlan[0].mac packetDropIncorrectlyReceived:sum(packetBytes) 0
attr interpolationmode none
attr source packetDropReasonIsIncorrectlyReceived(packetDropped)
attr title "packet drops: incorrectly received, sum(packetBytes)"
scalar Scenario.node[54].wlan[0].mac packetDropNotAddressedToUs:count 0
attr interpolationmode none
attr source packetDropReasonIsNotAddressedToUs(packetDropped)
attr title "packet drops: not addressed to us, count"
scalar Scenario.node[54].wlan[0].mac packetDropNotAddressedToUs:sum(packetBytes) 0
attr interpolationmode none
attr source packetDropReasonIsNotAddressedToUs(packetDropped)
attr title "packet drops: not addressed to us, sum(packetBytes)"
scalar Scenario.node[54].wlan[0].mac packetDropQueueOverflow:count 0
attr interpolationmode none
attr source packetDropReasonIsQueueOverflow(packetDropped)
attr title "packet drops: queue overflow, count"
scalar Scenario.node[54].wlan[0].mac packetDropQueueOverflow:sum(packetBytes) 0
attr interpolationmode none
attr source packetDropReasonIsQueueOverflow(packetDropped)
attr title "packet drops: queue overflow, sum(packetBytes)"
scalar Scenario.node[54].wlan[0].mac packetDropRetryLimitReached:count 0
attr interpolationmode none
attr source packetDropReasonIsRetryLimitReached(packetDropped)
attr title "packet drops: retry limit reached, count"
scalar Scenario.node[54].wlan[0].mac packetDropRetryLimitReached:sum(packetBytes) 0
attr interpolationmode none
attr source packetDropReasonIsRetryLimitReached(packetDropped)
attr title "packet drops: retry limit reached, sum(packetBytes)"
scalar Scenario.node[54].wlan[0].mac packetDropDuplicateDetected:count 0
attr interpolationmode none
attr source packetDropReasonIsDuplicateDetected(packetDropped)
attr title "packet drops: duplicate detected, count"
scalar Scenario.node[54].wlan[0].mac packetDropDuplicateDetected:sum(packetBytes) 0
attr interpolationmode none
attr source packetDropReasonIsDuplicateDetected(packetDropped)
attr title "packet drops: duplicate detected, sum(packetBytes)"
scalar Scenario.node[54].wlan[0].mac packetDropOther:count 0
attr interpolationmode none
attr source packetDropReasonIsOther(packetDropped)
attr title "packet drops: other, count"
scalar Scenario.node[54].wlan[0].mac packetDropOther:sum(packetBytes) 0
attr interpolationmode none
attr source packetDropReasonIsOther(packetDropped)
attr title "packet drops: other, sum(packetBytes)"
scalar Scenario.node[54].wlan[0].mac linkBroken:count 0
attr interpolationmode none
attr title "link breaks, count"
statistic Scenario.node[54].wlan[0].radio minSnir:histogram
field count 0
field mean nan
field stddev nan
field min nan
field max nan
field sum 0
field sqrsum 0
attr source minimumSnir(packetSentToUpper)
attr title "Min SNIR, histogram"
bin	-inf	0
bin	0	0
bin	1	0
statistic Scenario.node[54].wlan[0].radio packetErrorRate:histogram
field count 0
field mean nan
field stddev nan
field min nan
field max nan
field sum 0
field sqrsum 0
attr source packetErrorRate(packetSentToUpper)
attr title "Packet error rate, histogram"
bin	-inf	0
bin	0	0
bin	1	0
statistic Scenario.node[54].wlan[0].radio bitErrorRate:histogram
field count 0
field mean nan
field stddev nan
field min nan
field max nan
field sum 0
field sqrsum 0
attr source bitErrorRate(packetSentToUpper)
attr title "Bit error rate, histogram"
bin	-inf	0
bin	0	0
bin	1	0
statistic Scenario.node[54].wlan[0].radio symbolErrorRate:histogram
field count 0
field mean nan
field stddev nan
field min nan
field max nan
field sum 0
field sqrsum 0
attr source symbolErrorRate(packetSentToUpper)
attr title "Symbol error rate, histogram"
bin	-inf	0
bin	0	0
bin	1	0
scalar Scenario.node[54].wlan[0].radio transmissionState:count 0
attr interpolationmode sample-hold
attr source transmissionStateChanged
attr title "Radio transmission state, count"
scalar Scenario.node[54].wlan[0].radio receptionState:count 1
attr interpolationmode sample-hold
attr source receptionStateChanged
attr title "Radio reception state, count"
scalar Scenario.node[54].wlan[0].radio radioMode:count 3
attr interpolationmode sample-hold
attr source radioModeChanged
attr title "Radio mode, count"
statistic Scenario.node[54].wlan[0].radio radioChannel:histogram
field count 1
field mean 3
field stddev nan
field min 3
field max 3
field sum 3
field sqrsum 9
attr interpolationmode sample-hold
attr source radioChannelChanged
attr title "Radio channel, histogram"
bin	-inf	0
bin	2	0
bin	3	1
bin	4	0
scalar Scenario.node[54].ipv4.ip packetDropAddressResolutionFailed:count 0
attr interpolationmode none
attr source packetDropReasonIsAddressResolutionFailed(packetDropped)
attr title "packet drop: address resolution failed, count"
scalar Scenario.node[54].ipv4.ip packetDropAddressResolutionFailed:sum(packetBytes) 0
attr interpolationmode none
attr source packetDropReasonIsAddressResolutionFailed(packetDropped)
attr title "packet drop: address resolution failed, sum(packetBytes)"
scalar Scenario.node[54].ipv4.ip packetDropHopLimitReached:count 0
attr interpolationmode none
attr source packetDropReasonIsHopLimitReached(packetDropped)
attr title "packet drop: hop limit reached, count"
scalar Scenario.node[54].ipv4.ip packetDropHopLimitReached:sum(packetBytes) 0
attr interpolationmode none
attr source packetDropReasonIsHopLimitReached(packetDropped)
attr title "packet drop: hop limit reached, sum(packetBytes)"
scalar Scenario.node[54].ipv4.ip packetDropForwardingDisabled:count 0
attr interpolationmode none
attr source packetDropReasonIsForwardingDisabled(packetDropped)
attr title "packet drop: forwarding disabled, count"
scalar Scenario.node[54].ipv4.ip packetDropForwardingDisabled:sum(packetBytes) 0
attr interpolationmode none
attr source packetDropReasonIsForwardingDisabled(packetDropped)
attr title "packet drop: forwarding disabled, sum(packetBytes)"
scalar Scenario.node[54].ipv4.ip packetDropNoInterfaceFound:count 0
attr interpolationmode none
attr source packetDropReasonIsNoInterfaceFound(packetDropped)
attr title "packet drop: no interface found, count"
scalar Scenario.node[54].ipv4.ip packetDropNoInterfaceFound:sum(packetBytes) 0
attr interpolationmode none
attr source packetDropReasonIsNoInterfaceFound(packetDropped)
attr title "packet drop: no interface found, sum(packetBytes)"
scalar Scenario.node[54].ipv4.ip packetDropNoRouteFound:count 0
attr interpolationmode none
attr source packetDropReasonIsNoRouteFound(packetDropped)
attr title "packet drop: no route found, count"
scalar Scenario.node[54].ipv4.ip packetDropNoRouteFound:sum(packetBytes) 0
attr interpolationmode none
attr source packetDropReasonIsNoRouteFound(packetDropped)
attr title "packet drop: no route found, sum(packetBytes)"
scalar Scenario.node[54].ipv4.ip packetDropUndefined:count 0
attr interpolationmode none
attr source packetDropReasonIsUndefined(packetDropped)
attr title "packet drop: undefined, count"
scalar Scenario.node[54].ipv4.ip packetDropUndefined:sum(packetBytes) 0
attr interpolationmode none
attr source packetDropReasonIsUndefined(packetDropped)
attr title "packet drop: undefined, sum(packetBytes)"
scalar Scenario.node[54].ipv4.arp arpReplySent:count 0
attr source arpReplySent
attr title "ARP replies sent, count"
scalar Scenario.node[54].ipv4.arp arpReplySent:sum(packetBytes) 0
attr source arpReplySent
attr title "ARP replies sent, sum(packetBytes)"
scalar Scenario.node[54].ipv4.arp arpRequestSent:count 0
attr source arpRequestSent
attr title "ARP request sent, count"
scalar Scenario.node[54].ipv4.arp arpRequestSent:sum(packetBytes) 0
attr source arpRequestSent
attr title "ARP request sent, sum(packetBytes)"
scalar Scenario.node[54].ipv4.arp arpResolutionFailed:count 0
attr title "ARP failed resolutions, count"
scalar Scenario.node[54].ipv4.arp arpResolutionCompleted:count 0
attr title "ARP completed resolutions, count"
scalar Scenario.node[54].ipv4.arp arpResolutionInitiated:count 0
attr title "ARP initiated resolutions, count"
scalar Scenario.node[54].udp packetReceived:count 0
attr interpolationmode none
attr source packetReceived
attr title "packets received, count"
scalar Scenario.node[54].udp packetReceived:sum(packetBytes) 0
attr interpolationmode none
attr source packetReceived
attr title "packets received, sum(packetBytes)"
scalar Scenario.node[54].udp packetSent:count 0
attr interpolationmode none
attr source packetSent
attr title "packets sent, count"
scalar Scenario.node[54].udp packetSent:sum(packetBytes) 0
attr interpolationmode none
attr source packetSent
attr title "packets sent, sum(packetBytes)"
scalar Scenario.node[54].udp passedUpPk:count 0
attr interpolationmode none
attr source packetSentToUpper
attr title "packets passed up, count"
scalar Scenario.node[54].udp droppedPkWrongPort:count 0
attr interpolationmode none
attr source packetDropReasonIsNoPortFound(packetDropped)
attr title "packets dropped (wrong port), count"
scalar Scenario.node[54].udp droppedPkBadChecksum:count 0
attr interpolationmode none
attr source packetDropReasonIsIncorrectlyReceived(packetDropped)
attr title "packets dropped (checksum error), count"
scalar Scenario.node[54].app[0] packetReceived:count 0
attr interpolationmode none
attr source packetReceived
attr title "packets received, count"
scalar Scenario.node[54].app[0] packetReceived:sum(packetBytes) 0
attr interpolationmode none
attr source packetReceived
attr title "packets received, sum(packetBytes)"
statistic Scenario.node[54].app[0] rcvdPkLifetime:stats
field count 0
field mean nan
field stddev nan
field min nan
field max nan
field sum 0
field sqrsum 0
attr interpolationmode none
attr source dataAge(packetReceived)
attr title "received packet lifetime, stats"
attr unit s
scalar Scenario.node[54].app[0] packetSent:count 0
attr interpolationmode none
attr source packetSent
attr title "packets sent, count"
scalar Scenario.node[54].app[0] packetSent:sum(packetBytes) 0
attr interpolationmode none
attr source packetSent
attr title "packets sent, sum(packetBytes)"

