version 2
run plain-0-20250601-23:28:09-26416
attr configname plain
attr datetime 20250601-23:28:09
attr experiment plain
attr inifile omnetpp.ini
attr iterationvars ""
attr iterationvarsf ""
attr measurement ""
attr network Scenario
attr processid 26416
attr repetition 0
attr replication #0
attr resultdir results
attr runnumber 0
attr seedset 0
param **.debug true
param **.coreDebug false
param *.node[*].numApps 1
param *.node[*].app[0].typename "\"v2v.veins_inet.VeinsInetSampleApplication\""
param *.node[*].app[0].interface "\"wlan0\""
param *.node[*].wlan[0].opMode "\"p\""
param *.node[*].wlan[0].radio.typename "\"Ieee80211DimensionalRadio\""
param *.node[*].wlan[0].radio.bandName "\"5.9 GHz\""
param *.node[*].wlan[0].radio.channelNumber 3
param *.node[*].wlan[0].radio.transmitter.power 23dBm
param *.node[*].wlan[0].radio.bandwidth "10 MHz"
param *.node[*].wlan[*].radio.antenna.mobility.typename "\"AttachedMobility\""
param *.node[*].wlan[*].radio.antenna.mobility.mobilityModule "\"^.^.^.^.mobility\""
param *.node[*].wlan[*].radio.antenna.mobility.offsetX -2.5m
param *.node[*].wlan[*].radio.antenna.mobility.offsetZ 1.5m
param *.node[*].wlan[*].radio.antenna.mobility.constraintAreaMinX 0m
param *.node[*].wlan[*].radio.antenna.mobility.constraintAreaMaxX 0m
param *.node[*].wlan[*].radio.antenna.mobility.constraintAreaMinY 0m
param *.node[*].wlan[*].radio.antenna.mobility.constraintAreaMaxY 0m
param *.node[*].wlan[*].radio.antenna.mobility.constraintAreaMinZ 0m
param *.node[*].wlan[*].radio.antenna.mobility.constraintAreaMaxZ 0m
param *.node[*].ipv4.configurator.typename "\"HostAutoConfigurator\""
param *.node[*].ipv4.configurator.interfaces "\"wlan0\""
param *.node[*].ipv4.configurator.mcastGroups "\"224.0.0.1\""
param *.node[*].mobility.typename "\"VeinsInetMobility\""
param *.manager.updateInterval 0.1s
param *.manager.host "\"localhost\""
param *.manager.port 9999
param *.manager.autoShutdown true
param *.manager.launchConfig "xmldoc(\"map.launchd.xml\")"
param *.manager.moduleType "\"v2v.veins_inet.VeinsInetCar\""
param *.physicalEnvironment.config "xmldoc(\"obstacles.xml\")"
param *.radioMedium.obstacleLoss.typename "\"IdealObstacleLoss\""
param *.radioMedium.typename "\"Ieee80211DimensionalRadioMedium\""
param *.radioMedium.backgroundNoise.power -110dBm
param *.radioMedium.mediumLimitCache.carrierFrequency 5.9GHz
param *.radioMedium.propagation.typename "\"ConstantSpeedPropagation\""
param *.radioMedium.pathLoss.typename "\"TwoRayGroundReflection\""
param *.radioMedium.pathLoss.alpha 2.0
param *.radioMedium.communicationRange 300m
param *.radioMedium.interferenceRange 400m
param *.radioMedium.detectionRange 500m
param *.node[*].wlan[0].radio.transmitter.power 23dBm
param *.node[*].wlan[0].radio.receiver.sensitivity -95dBm
param *.node[*].wlan[0].radio.receiver.energyDetection -95dBm
param *.node[*].wlan[0].radio.receiver.snirThreshold 4dB
param *.node[*].wlan[0].radio.antenna.typename "\"IsotropicAntenna\""
param *.node[*].wlan[0].radio.antenna.gain 2.15dB
param *.node[*].wlan[0].mac.typename "\"Ieee80211Mac\""
param *.node[*].wlan[0].mac.dcf.channelAccess.typename "\"Ieee80211DcfChannelAccess\""
param *.node[*].wlan[0].mac.dcf.channelAccess.cwMin 15
param *.node[*].wlan[0].mac.dcf.channelAccess.cwMax 1023
param *.node[*].wlan[0].mac.dcf.channelAccess.aifsn 2
param *.node[*].wlan[0].mac.dcf.channelAccess.slotTime 13us
param *.node[*].wlan[0].mac.dcf.channelAccess.sifsTime 32us
param *.node[*].wlan[0].mac.rateSelection.dataRate 6Mbps

vector 0 Scenario.node[0].wlan[0].radio radioMode:vector ETV
attr interpolationmode sample-hold
attr source radioModeChanged
attr title "Radio mode, vector"
vector 1 Scenario.node[0].wlan[0].radio radioChannel:vector ETV
attr interpolationmode sample-hold
attr source radioChannelChanged
attr title "Radio channel, vector"
vector 2 Scenario.node[0].wlan[0].radio receptionState:vector ETV
attr interpolationmode sample-hold
attr source receptionStateChanged
attr title "Radio reception state, vector"
vector 3 Scenario.node[0].wlan[0].mac.dcf.recoveryProcedure contentionWindowChanged:vector ETV
attr interpolationmode sample-hold
attr title "contention window, vector"
vector 4 Scenario.node[1].wlan[0].radio radioMode:vector ETV
attr interpolationmode sample-hold
attr source radioModeChanged
attr title "Radio mode, vector"
vector 5 Scenario.node[1].wlan[0].radio radioChannel:vector ETV
attr interpolationmode sample-hold
attr source radioChannelChanged
attr title "Radio channel, vector"
vector 6 Scenario.node[1].wlan[0].radio receptionState:vector ETV
attr interpolationmode sample-hold
attr source receptionStateChanged
attr title "Radio reception state, vector"
vector 7 Scenario.node[1].wlan[0].mac.dcf.recoveryProcedure contentionWindowChanged:vector ETV
attr interpolationmode sample-hold
attr title "contention window, vector"
vector 8 Scenario.node[2].wlan[0].radio radioMode:vector ETV
attr interpolationmode sample-hold
attr source radioModeChanged
attr title "Radio mode, vector"
vector 9 Scenario.node[2].wlan[0].radio radioChannel:vector ETV
attr interpolationmode sample-hold
attr source radioChannelChanged
attr title "Radio channel, vector"
vector 10 Scenario.node[2].wlan[0].radio receptionState:vector ETV
attr interpolationmode sample-hold
attr source receptionStateChanged
attr title "Radio reception state, vector"
vector 11 Scenario.node[2].wlan[0].mac.dcf.recoveryProcedure contentionWindowChanged:vector ETV
attr interpolationmode sample-hold
attr title "contention window, vector"
vector 12 Scenario.node[3].wlan[0].radio radioMode:vector ETV
attr interpolationmode sample-hold
attr source radioModeChanged
attr title "Radio mode, vector"
vector 13 Scenario.node[3].wlan[0].radio radioChannel:vector ETV
attr interpolationmode sample-hold
attr source radioChannelChanged
attr title "Radio channel, vector"
vector 14 Scenario.node[3].wlan[0].radio receptionState:vector ETV
attr interpolationmode sample-hold
attr source receptionStateChanged
attr title "Radio reception state, vector"
vector 15 Scenario.node[3].wlan[0].mac.dcf.recoveryProcedure contentionWindowChanged:vector ETV
attr interpolationmode sample-hold
attr title "contention window, vector"
vector 16 Scenario.node[4].wlan[0].radio radioMode:vector ETV
attr interpolationmode sample-hold
attr source radioModeChanged
attr title "Radio mode, vector"
vector 17 Scenario.node[4].wlan[0].radio radioChannel:vector ETV
attr interpolationmode sample-hold
attr source radioChannelChanged
attr title "Radio channel, vector"
vector 18 Scenario.node[4].wlan[0].radio receptionState:vector ETV
attr interpolationmode sample-hold
attr source receptionStateChanged
attr title "Radio reception state, vector"
vector 19 Scenario.node[4].wlan[0].mac.dcf.recoveryProcedure contentionWindowChanged:vector ETV
attr interpolationmode sample-hold
attr title "contention window, vector"
vector 20 Scenario.node[5].wlan[0].radio radioMode:vector ETV
attr interpolationmode sample-hold
attr source radioModeChanged
attr title "Radio mode, vector"
vector 21 Scenario.node[5].wlan[0].radio radioChannel:vector ETV
attr interpolationmode sample-hold
attr source radioChannelChanged
attr title "Radio channel, vector"
vector 22 Scenario.node[5].wlan[0].radio receptionState:vector ETV
attr interpolationmode sample-hold
attr source receptionStateChanged
attr title "Radio reception state, vector"
vector 23 Scenario.node[5].wlan[0].mac.dcf.recoveryProcedure contentionWindowChanged:vector ETV
attr interpolationmode sample-hold
attr title "contention window, vector"
vector 24 Scenario.node[6].wlan[0].radio radioMode:vector ETV
attr interpolationmode sample-hold
attr source radioModeChanged
attr title "Radio mode, vector"
vector 25 Scenario.node[6].wlan[0].radio radioChannel:vector ETV
attr interpolationmode sample-hold
attr source radioChannelChanged
attr title "Radio channel, vector"
vector 26 Scenario.node[6].wlan[0].radio receptionState:vector ETV
attr interpolationmode sample-hold
attr source receptionStateChanged
attr title "Radio reception state, vector"
vector 27 Scenario.node[6].wlan[0].mac.dcf.recoveryProcedure contentionWindowChanged:vector ETV
attr interpolationmode sample-hold
attr title "contention window, vector"
vector 28 Scenario.node[7].wlan[0].radio radioMode:vector ETV
attr interpolationmode sample-hold
attr source radioModeChanged
attr title "Radio mode, vector"
vector 29 Scenario.node[7].wlan[0].radio radioChannel:vector ETV
attr interpolationmode sample-hold
attr source radioChannelChanged
attr title "Radio channel, vector"
vector 30 Scenario.node[7].wlan[0].radio receptionState:vector ETV
attr interpolationmode sample-hold
attr source receptionStateChanged
attr title "Radio reception state, vector"
vector 31 Scenario.node[7].wlan[0].mac.dcf.recoveryProcedure contentionWindowChanged:vector ETV
attr interpolationmode sample-hold
attr title "contention window, vector"
vector 32 Scenario.node[8].wlan[0].radio radioMode:vector ETV
attr interpolationmode sample-hold
attr source radioModeChanged
attr title "Radio mode, vector"
vector 33 Scenario.node[8].wlan[0].radio radioChannel:vector ETV
attr interpolationmode sample-hold
attr source radioChannelChanged
attr title "Radio channel, vector"
vector 34 Scenario.node[8].wlan[0].radio receptionState:vector ETV
attr interpolationmode sample-hold
attr source receptionStateChanged
attr title "Radio reception state, vector"
vector 35 Scenario.node[8].wlan[0].mac.dcf.recoveryProcedure contentionWindowChanged:vector ETV
attr interpolationmode sample-hold
attr title "contention window, vector"
vector 36 Scenario.node[9].wlan[0].radio radioMode:vector ETV
attr interpolationmode sample-hold
attr source radioModeChanged
attr title "Radio mode, vector"
vector 37 Scenario.node[9].wlan[0].radio radioChannel:vector ETV
attr interpolationmode sample-hold
attr source radioChannelChanged
attr title "Radio channel, vector"
vector 38 Scenario.node[9].wlan[0].radio receptionState:vector ETV
attr interpolationmode sample-hold
attr source receptionStateChanged
attr title "Radio reception state, vector"
vector 39 Scenario.node[9].wlan[0].mac.dcf.recoveryProcedure contentionWindowChanged:vector ETV
attr interpolationmode sample-hold
attr title "contention window, vector"
vector 40 Scenario.node[10].wlan[0].radio radioMode:vector ETV
attr interpolationmode sample-hold
attr source radioModeChanged
attr title "Radio mode, vector"
vector 41 Scenario.node[10].wlan[0].radio radioChannel:vector ETV
attr interpolationmode sample-hold
attr source radioChannelChanged
attr title "Radio channel, vector"
vector 42 Scenario.node[10].wlan[0].radio receptionState:vector ETV
attr interpolationmode sample-hold
attr source receptionStateChanged
attr title "Radio reception state, vector"
vector 43 Scenario.node[10].wlan[0].mac.dcf.recoveryProcedure contentionWindowChanged:vector ETV
attr interpolationmode sample-hold
attr title "contention window, vector"
vector 44 Scenario.node[11].wlan[0].radio radioMode:vector ETV
attr interpolationmode sample-hold
attr source radioModeChanged
attr title "Radio mode, vector"
vector 45 Scenario.node[11].wlan[0].radio radioChannel:vector ETV
attr interpolationmode sample-hold
attr source radioChannelChanged
attr title "Radio channel, vector"
vector 46 Scenario.node[11].wlan[0].radio receptionState:vector ETV
attr interpolationmode sample-hold
attr source receptionStateChanged
attr title "Radio reception state, vector"
vector 47 Scenario.node[11].wlan[0].mac.dcf.recoveryProcedure contentionWindowChanged:vector ETV
attr interpolationmode sample-hold
attr title "contention window, vector"
vector 48 Scenario.node[12].wlan[0].radio radioMode:vector ETV
attr interpolationmode sample-hold
attr source radioModeChanged
attr title "Radio mode, vector"
vector 49 Scenario.node[12].wlan[0].radio radioChannel:vector ETV
attr interpolationmode sample-hold
attr source radioChannelChanged
attr title "Radio channel, vector"
vector 50 Scenario.node[12].wlan[0].radio receptionState:vector ETV
attr interpolationmode sample-hold
attr source receptionStateChanged
attr title "Radio reception state, vector"
vector 51 Scenario.node[12].wlan[0].mac.dcf.recoveryProcedure contentionWindowChanged:vector ETV
attr interpolationmode sample-hold
attr title "contention window, vector"
vector 52 Scenario.node[13].wlan[0].radio radioMode:vector ETV
attr interpolationmode sample-hold
attr source radioModeChanged
attr title "Radio mode, vector"
vector 53 Scenario.node[13].wlan[0].radio radioChannel:vector ETV
attr interpolationmode sample-hold
attr source radioChannelChanged
attr title "Radio channel, vector"
vector 54 Scenario.node[13].wlan[0].radio receptionState:vector ETV
attr interpolationmode sample-hold
attr source receptionStateChanged
attr title "Radio reception state, vector"
vector 55 Scenario.node[13].wlan[0].mac.dcf.recoveryProcedure contentionWindowChanged:vector ETV
attr interpolationmode sample-hold
attr title "contention window, vector"
vector 56 Scenario.node[14].wlan[0].radio radioMode:vector ETV
attr interpolationmode sample-hold
attr source radioModeChanged
attr title "Radio mode, vector"
vector 57 Scenario.node[14].wlan[0].radio radioChannel:vector ETV
attr interpolationmode sample-hold
attr source radioChannelChanged
attr title "Radio channel, vector"
vector 58 Scenario.node[14].wlan[0].radio receptionState:vector ETV
attr interpolationmode sample-hold
attr source receptionStateChanged
attr title "Radio reception state, vector"
vector 59 Scenario.node[14].wlan[0].mac.dcf.recoveryProcedure contentionWindowChanged:vector ETV
attr interpolationmode sample-hold
attr title "contention window, vector"
vector 60 Scenario.node[15].wlan[0].radio radioMode:vector ETV
attr interpolationmode sample-hold
attr source radioModeChanged
attr title "Radio mode, vector"
vector 61 Scenario.node[15].wlan[0].radio radioChannel:vector ETV
attr interpolationmode sample-hold
attr source radioChannelChanged
attr title "Radio channel, vector"
vector 62 Scenario.node[15].wlan[0].radio receptionState:vector ETV
attr interpolationmode sample-hold
attr source receptionStateChanged
attr title "Radio reception state, vector"
vector 63 Scenario.node[15].wlan[0].mac.dcf.recoveryProcedure contentionWindowChanged:vector ETV
attr interpolationmode sample-hold
attr title "contention window, vector"
vector 64 Scenario.node[16].wlan[0].radio radioMode:vector ETV
attr interpolationmode sample-hold
attr source radioModeChanged
attr title "Radio mode, vector"
vector 65 Scenario.node[16].wlan[0].radio radioChannel:vector ETV
attr interpolationmode sample-hold
attr source radioChannelChanged
attr title "Radio channel, vector"
vector 66 Scenario.node[16].wlan[0].radio receptionState:vector ETV
attr interpolationmode sample-hold
attr source receptionStateChanged
attr title "Radio reception state, vector"
vector 67 Scenario.node[16].wlan[0].mac.dcf.recoveryProcedure contentionWindowChanged:vector ETV
attr interpolationmode sample-hold
attr title "contention window, vector"
vector 68 Scenario.node[17].wlan[0].radio radioMode:vector ETV
attr interpolationmode sample-hold
attr source radioModeChanged
attr title "Radio mode, vector"
vector 69 Scenario.node[17].wlan[0].radio radioChannel:vector ETV
attr interpolationmode sample-hold
attr source radioChannelChanged
attr title "Radio channel, vector"
vector 70 Scenario.node[17].wlan[0].radio receptionState:vector ETV
attr interpolationmode sample-hold
attr source receptionStateChanged
attr title "Radio reception state, vector"
vector 71 Scenario.node[17].wlan[0].mac.dcf.recoveryProcedure contentionWindowChanged:vector ETV
attr interpolationmode sample-hold
attr title "contention window, vector"
vector 72 Scenario.node[0].app[0] packetSent:vector(packetBytes) ETV
attr interpolationmode none
attr source packetSent
attr title "packets sent, vector(packetBytes)"
vector 73 Scenario.node[0].udp packetSent:vector(packetBytes) ETV
attr interpolationmode none
attr source packetSent
attr title "packets sent, vector(packetBytes)"
vector 74 Scenario.node[0].lo[0].lo rcvdPkFromHl:vector(packetBytes) ETV
attr interpolationmode none
attr source packetReceivedFromUpper
attr title "packets received from higher layer, vector(packetBytes)"
vector 75 Scenario.node[0].lo[0].lo passedUpPk:vector(packetBytes) ETV
attr interpolationmode none
attr source packetSentToUpper
attr title "packets passed to higher layer, vector(packetBytes)"
vector 76 Scenario.node[0].wlan[0].mac packetReceivedFromUpper:vector(packetBytes) ETV
attr interpolationmode none
attr title "packets received from upper layer, vector(packetBytes)"
vector 77 Scenario.node[0].wlan[0].mac.dcf.channelAccess.pendingQueue packetPushed:vector(packetBytes) ETV
attr interpolationmode none
attr title "packet pushed, vector(packetBytes)"
vector 78 Scenario.node[0].wlan[0].mac.dcf.channelAccess.pendingQueue queueLength:vector ETV
attr interpolationmode sample-hold
attr source "count(packetPushed) - count(packetPopped) - count(packetRemoved) - count(packetDropped)"
attr title "queue length, vector"
vector 79 Scenario.node[0].wlan[0].mac.dcf.channelAccess.contention backoffPeriodGenerated:vector ETV
attr interpolationmode none
attr title "backoff periods, vector"
vector 80 Scenario.node[0].wlan[0].mac.dcf.channelAccess.contention backoffActive:vector ETV
attr interpolationmode sample-hold
attr source count(backoffStarted)-count(backoffStopped)
attr title "backoff active, vector"
vector 81 Scenario.node[0].udp packetReceived:vector(packetBytes) ETV
attr interpolationmode none
attr source packetReceived
attr title "packets received, vector(packetBytes)"
vector 82 Scenario.node[0].udp passedUpPk:vector(count) ETV
attr interpolationmode none
attr source packetSentToUpper
attr title "packets passed up, vector(count)"
vector 83 Scenario.node[0].app[0] packetReceived:vector(packetBytes) ETV
attr interpolationmode none
attr source packetReceived
attr title "packets received, vector(packetBytes)"
vector 84 Scenario.node[0].app[0] throughput:vector ETV
attr source throughput(packetReceived)
attr title "throughput, vector"
attr unit bps
vector 85 Scenario.node[0].app[0] rcvdPkLifetime:vector ETV
attr interpolationmode none
attr source dataAge(packetReceived)
attr title "received packet lifetime, vector"
attr unit s
vector 86 Scenario.node[0].wlan[0].mac.dcf.channelAccess.pendingQueue packetPopped:vector(packetBytes) ETV
attr interpolationmode none
attr title "packet popped, vector(packetBytes)"
vector 87 Scenario.node[0].wlan[0].mac.dcf.channelAccess.pendingQueue queueingTime:vector ETV
attr interpolationmode none
attr source queueingTime(packetPopped)
attr title "queueing times, vector"
attr unit s
vector 88 Scenario.node[0].wlan[0].mac.dcf.channelAccess.inProgressFrames queueLength:vector ETV
attr interpolationmode sample-hold
attr source "count(packetEnqueued) - count(packetDequeued)"
attr title "queue length, vector"
vector 89 Scenario.node[0].wlan[0].mac.dcf datarateSelected:vector ETV
attr interpolationmode none
attr title "datarates selected, vector"
vector 90 Scenario.node[0].wlan[0].mac packetSentToLower:vector(packetBytes) ETV
attr interpolationmode none
attr title "packets sent to lower layer, vector(packetBytes)"
vector 91 Scenario.node[0].wlan[0].mac.dcf frameSequenceActive:vector ETV
attr interpolationmode sample-hold
attr source count(frameSequenceStarted)-count(frameSequenceFinished)
attr title "frame sequence active, vector"
vector 92 Scenario.node[0].wlan[0].radio transmissionState:vector ETV
attr interpolationmode sample-hold
attr source transmissionStateChanged
attr title "Radio transmission state, vector"
vector 93 Scenario.node[0].wlan[0].mac.dcf packetSentToPeer:vector(packetBytes) ETV
attr interpolationmode none
attr title "packets sent, vector(packetBytes)"
vector 94 Scenario.node[0].wlan[0].mac.dcf packetSentToPeerMulticast:vector(packetBytes) ETV
attr interpolationmode none
attr source ieee80211Multicast(packetSentToPeer)
attr title "packets sent: multicast, vector(packetBytes)"
vector 95 Scenario.node[0].wlan[0].mac.dcf packetSentToPeerWithoutRetry:vector(packetBytes) ETV
attr interpolationmode none
attr source ieee80211NotRetry(packetSentToPeer)
attr title "packets sent: without retry, vector(packetBytes)"
vector 96 Scenario.node[0].wlan[0].mac.dcf.channelAccess.inProgressFrames queueingTime:vector ETV
attr interpolationmode none
attr source queueingTime(packetDequeued)
attr title "queueing times, vector"
vector 97 Scenario.node[12].wlan[0].mac packetReceivedFromLower:vector(packetBytes) ETV
attr interpolationmode none
attr title "packets received from lower layer, vector(packetBytes)"
vector 98 Scenario.node[12].wlan[0].mac.dcf packetReceivedFromPeer:vector(packetBytes) ETV
attr interpolationmode none
attr title "packets received, vector(packetBytes)"
vector 99 Scenario.node[12].wlan[0].mac.dcf packetReceivedFromPeerMulticast:vector(packetBytes) ETV
attr interpolationmode none
attr source ieee80211Multicast(packetReceivedFromPeer)
attr title "packets received: multicast, vector(packetBytes)"
vector 100 Scenario.node[12].wlan[0].mac.dcf packetReceivedFromPeerWithoutRetry:vector(packetBytes) ETV
attr interpolationmode none
attr source ieee80211NotRetry(packetReceivedFromPeer)
attr title "packets received: without retry, vector(packetBytes)"
vector 101 Scenario.node[12].wlan[0].mac packetSentToUpper:vector(packetBytes) ETV
attr interpolationmode none
attr title "packets sent to upper layer, vector(packetBytes)"
vector 102 Scenario.node[12].udp packetReceived:vector(packetBytes) ETV
attr interpolationmode none
attr source packetReceived
attr title "packets received, vector(packetBytes)"
vector 103 Scenario.node[12].udp passedUpPk:vector(count) ETV
attr interpolationmode none
attr source packetSentToUpper
attr title "packets passed up, vector(count)"
vector 104 Scenario.node[12].app[0] packetReceived:vector(packetBytes) ETV
attr interpolationmode none
attr source packetReceived
attr title "packets received, vector(packetBytes)"
vector 105 Scenario.node[12].app[0] throughput:vector ETV
attr source throughput(packetReceived)
attr title "throughput, vector"
attr unit bps
vector 106 Scenario.node[12].app[0] rcvdPkLifetime:vector ETV
attr interpolationmode none
attr source dataAge(packetReceived)
attr title "received packet lifetime, vector"
attr unit s
vector 107 Scenario.node[6].wlan[0].mac packetReceivedFromLower:vector(packetBytes) ETV
attr interpolationmode none
attr title "packets received from lower layer, vector(packetBytes)"
vector 108 Scenario.node[6].wlan[0].mac.dcf packetReceivedFromPeer:vector(packetBytes) ETV
attr interpolationmode none
attr title "packets received, vector(packetBytes)"
vector 109 Scenario.node[6].wlan[0].mac.dcf packetReceivedFromPeerMulticast:vector(packetBytes) ETV
attr interpolationmode none
attr source ieee80211Multicast(packetReceivedFromPeer)
attr title "packets received: multicast, vector(packetBytes)"
vector 110 Scenario.node[6].wlan[0].mac.dcf packetReceivedFromPeerWithoutRetry:vector(packetBytes) ETV
attr interpolationmode none
attr source ieee80211NotRetry(packetReceivedFromPeer)
attr title "packets received: without retry, vector(packetBytes)"
vector 111 Scenario.node[6].wlan[0].mac packetSentToUpper:vector(packetBytes) ETV
attr interpolationmode none
attr title "packets sent to upper layer, vector(packetBytes)"
vector 112 Scenario.node[6].udp packetReceived:vector(packetBytes) ETV
attr interpolationmode none
attr source packetReceived
attr title "packets received, vector(packetBytes)"
vector 113 Scenario.node[6].udp passedUpPk:vector(count) ETV
attr interpolationmode none
attr source packetSentToUpper
attr title "packets passed up, vector(count)"
vector 114 Scenario.node[6].app[0] packetReceived:vector(packetBytes) ETV
attr interpolationmode none
attr source packetReceived
attr title "packets received, vector(packetBytes)"
vector 115 Scenario.node[6].app[0] throughput:vector ETV
attr source throughput(packetReceived)
attr title "throughput, vector"
attr unit bps
vector 116 Scenario.node[6].app[0] rcvdPkLifetime:vector ETV
attr interpolationmode none
attr source dataAge(packetReceived)
attr title "received packet lifetime, vector"
attr unit s
vector 117 Scenario.node[6].app[0] packetSent:vector(packetBytes) ETV
attr interpolationmode none
attr source packetSent
attr title "packets sent, vector(packetBytes)"
vector 118 Scenario.node[6].udp packetSent:vector(packetBytes) ETV
attr interpolationmode none
attr source packetSent
attr title "packets sent, vector(packetBytes)"
vector 119 Scenario.node[6].lo[0].lo rcvdPkFromHl:vector(packetBytes) ETV
attr interpolationmode none
attr source packetReceivedFromUpper
attr title "packets received from higher layer, vector(packetBytes)"
vector 120 Scenario.node[6].lo[0].lo passedUpPk:vector(packetBytes) ETV
attr interpolationmode none
attr source packetSentToUpper
attr title "packets passed to higher layer, vector(packetBytes)"
vector 121 Scenario.node[6].wlan[0].mac packetReceivedFromUpper:vector(packetBytes) ETV
attr interpolationmode none
attr title "packets received from upper layer, vector(packetBytes)"
vector 122 Scenario.node[6].wlan[0].mac.dcf.channelAccess.pendingQueue packetPushed:vector(packetBytes) ETV
attr interpolationmode none
attr title "packet pushed, vector(packetBytes)"
vector 123 Scenario.node[6].wlan[0].mac.dcf.channelAccess.pendingQueue queueLength:vector ETV
attr interpolationmode sample-hold
attr source "count(packetPushed) - count(packetPopped) - count(packetRemoved) - count(packetDropped)"
attr title "queue length, vector"
vector 124 Scenario.node[6].wlan[0].mac.dcf.channelAccess.contention backoffPeriodGenerated:vector ETV
attr interpolationmode none
attr title "backoff periods, vector"
vector 125 Scenario.node[6].wlan[0].mac.dcf.channelAccess.contention backoffActive:vector ETV
attr interpolationmode sample-hold
attr source count(backoffStarted)-count(backoffStopped)
attr title "backoff active, vector"
vector 126 Scenario.node[5].wlan[0].mac packetReceivedFromLower:vector(packetBytes) ETV
attr interpolationmode none
attr title "packets received from lower layer, vector(packetBytes)"
vector 127 Scenario.node[5].wlan[0].mac.dcf packetReceivedFromPeer:vector(packetBytes) ETV
attr interpolationmode none
attr title "packets received, vector(packetBytes)"
vector 128 Scenario.node[5].wlan[0].mac.dcf packetReceivedFromPeerMulticast:vector(packetBytes) ETV
attr interpolationmode none
attr source ieee80211Multicast(packetReceivedFromPeer)
attr title "packets received: multicast, vector(packetBytes)"
vector 129 Scenario.node[5].wlan[0].mac.dcf packetReceivedFromPeerWithoutRetry:vector(packetBytes) ETV
attr interpolationmode none
attr source ieee80211NotRetry(packetReceivedFromPeer)
attr title "packets received: without retry, vector(packetBytes)"
vector 130 Scenario.node[5].wlan[0].mac packetSentToUpper:vector(packetBytes) ETV
attr interpolationmode none
attr title "packets sent to upper layer, vector(packetBytes)"
vector 131 Scenario.node[5].udp packetReceived:vector(packetBytes) ETV
attr interpolationmode none
attr source packetReceived
attr title "packets received, vector(packetBytes)"
vector 132 Scenario.node[5].udp passedUpPk:vector(count) ETV
attr interpolationmode none
attr source packetSentToUpper
attr title "packets passed up, vector(count)"
vector 133 Scenario.node[5].app[0] packetReceived:vector(packetBytes) ETV
attr interpolationmode none
attr source packetReceived
attr title "packets received, vector(packetBytes)"
vector 134 Scenario.node[5].app[0] throughput:vector ETV
attr source throughput(packetReceived)
attr title "throughput, vector"
attr unit bps
vector 135 Scenario.node[5].app[0] rcvdPkLifetime:vector ETV
attr interpolationmode none
attr source dataAge(packetReceived)
attr title "received packet lifetime, vector"
attr unit s
vector 136 Scenario.node[13].wlan[0].mac packetReceivedFromLower:vector(packetBytes) ETV
attr interpolationmode none
attr title "packets received from lower layer, vector(packetBytes)"
vector 137 Scenario.node[13].wlan[0].mac.dcf packetReceivedFromPeer:vector(packetBytes) ETV
attr interpolationmode none
attr title "packets received, vector(packetBytes)"
vector 138 Scenario.node[13].wlan[0].mac.dcf packetReceivedFromPeerMulticast:vector(packetBytes) ETV
attr interpolationmode none
attr source ieee80211Multicast(packetReceivedFromPeer)
attr title "packets received: multicast, vector(packetBytes)"
vector 139 Scenario.node[13].wlan[0].mac.dcf packetReceivedFromPeerWithoutRetry:vector(packetBytes) ETV
attr interpolationmode none
attr source ieee80211NotRetry(packetReceivedFromPeer)
attr title "packets received: without retry, vector(packetBytes)"
vector 140 Scenario.node[13].wlan[0].mac packetSentToUpper:vector(packetBytes) ETV
attr interpolationmode none
attr title "packets sent to upper layer, vector(packetBytes)"
vector 141 Scenario.node[13].udp packetReceived:vector(packetBytes) ETV
attr interpolationmode none
attr source packetReceived
attr title "packets received, vector(packetBytes)"
vector 142 Scenario.node[13].udp passedUpPk:vector(count) ETV
attr interpolationmode none
attr source packetSentToUpper
attr title "packets passed up, vector(count)"
vector 143 Scenario.node[13].app[0] packetReceived:vector(packetBytes) ETV
attr interpolationmode none
attr source packetReceived
attr title "packets received, vector(packetBytes)"
vector 144 Scenario.node[13].app[0] throughput:vector ETV
attr source throughput(packetReceived)
attr title "throughput, vector"
attr unit bps
vector 145 Scenario.node[13].app[0] rcvdPkLifetime:vector ETV
attr interpolationmode none
attr source dataAge(packetReceived)
attr title "received packet lifetime, vector"
attr unit s
vector 146 Scenario.node[13].app[0] packetSent:vector(packetBytes) ETV
attr interpolationmode none
attr source packetSent
attr title "packets sent, vector(packetBytes)"
vector 147 Scenario.node[13].udp packetSent:vector(packetBytes) ETV
attr interpolationmode none
attr source packetSent
attr title "packets sent, vector(packetBytes)"
vector 148 Scenario.node[13].lo[0].lo rcvdPkFromHl:vector(packetBytes) ETV
attr interpolationmode none
attr source packetReceivedFromUpper
attr title "packets received from higher layer, vector(packetBytes)"
vector 149 Scenario.node[13].lo[0].lo passedUpPk:vector(packetBytes) ETV
attr interpolationmode none
attr source packetSentToUpper
attr title "packets passed to higher layer, vector(packetBytes)"
vector 150 Scenario.node[13].wlan[0].mac packetReceivedFromUpper:vector(packetBytes) ETV
attr interpolationmode none
attr title "packets received from upper layer, vector(packetBytes)"
vector 151 Scenario.node[13].wlan[0].mac.dcf.channelAccess.pendingQueue packetPushed:vector(packetBytes) ETV
attr interpolationmode none
attr title "packet pushed, vector(packetBytes)"
vector 152 Scenario.node[13].wlan[0].mac.dcf.channelAccess.pendingQueue queueLength:vector ETV
attr interpolationmode sample-hold
attr source "count(packetPushed) - count(packetPopped) - count(packetRemoved) - count(packetDropped)"
attr title "queue length, vector"
vector 153 Scenario.node[13].wlan[0].mac.dcf.channelAccess.contention backoffPeriodGenerated:vector ETV
attr interpolationmode none
attr title "backoff periods, vector"
vector 154 Scenario.node[13].wlan[0].mac.dcf.channelAccess.contention backoffActive:vector ETV
attr interpolationmode sample-hold
attr source count(backoffStarted)-count(backoffStopped)
attr title "backoff active, vector"
vector 155 Scenario.node[4].wlan[0].mac packetReceivedFromLower:vector(packetBytes) ETV
attr interpolationmode none
attr title "packets received from lower layer, vector(packetBytes)"
vector 156 Scenario.node[4].wlan[0].mac.dcf packetReceivedFromPeer:vector(packetBytes) ETV
attr interpolationmode none
attr title "packets received, vector(packetBytes)"
vector 157 Scenario.node[4].wlan[0].mac.dcf packetReceivedFromPeerMulticast:vector(packetBytes) ETV
attr interpolationmode none
attr source ieee80211Multicast(packetReceivedFromPeer)
attr title "packets received: multicast, vector(packetBytes)"
vector 158 Scenario.node[4].wlan[0].mac.dcf packetReceivedFromPeerWithoutRetry:vector(packetBytes) ETV
attr interpolationmode none
attr source ieee80211NotRetry(packetReceivedFromPeer)
attr title "packets received: without retry, vector(packetBytes)"
vector 159 Scenario.node[4].wlan[0].mac packetSentToUpper:vector(packetBytes) ETV
attr interpolationmode none
attr title "packets sent to upper layer, vector(packetBytes)"
vector 160 Scenario.node[4].udp packetReceived:vector(packetBytes) ETV
attr interpolationmode none
attr source packetReceived
attr title "packets received, vector(packetBytes)"
vector 161 Scenario.node[4].udp passedUpPk:vector(count) ETV
attr interpolationmode none
attr source packetSentToUpper
attr title "packets passed up, vector(count)"
vector 162 Scenario.node[4].app[0] packetReceived:vector(packetBytes) ETV
attr interpolationmode none
attr source packetReceived
attr title "packets received, vector(packetBytes)"
vector 163 Scenario.node[4].app[0] throughput:vector ETV
attr source throughput(packetReceived)
attr title "throughput, vector"
attr unit bps
vector 164 Scenario.node[4].app[0] rcvdPkLifetime:vector ETV
attr interpolationmode none
attr source dataAge(packetReceived)
attr title "received packet lifetime, vector"
attr unit s
vector 165 Scenario.node[4].app[0] packetSent:vector(packetBytes) ETV
attr interpolationmode none
attr source packetSent
attr title "packets sent, vector(packetBytes)"
vector 166 Scenario.node[4].udp packetSent:vector(packetBytes) ETV
attr interpolationmode none
attr source packetSent
attr title "packets sent, vector(packetBytes)"
vector 167 Scenario.node[4].lo[0].lo rcvdPkFromHl:vector(packetBytes) ETV
attr interpolationmode none
attr source packetReceivedFromUpper
attr title "packets received from higher layer, vector(packetBytes)"
vector 168 Scenario.node[4].lo[0].lo passedUpPk:vector(packetBytes) ETV
attr interpolationmode none
attr source packetSentToUpper
attr title "packets passed to higher layer, vector(packetBytes)"
vector 169 Scenario.node[4].wlan[0].mac packetReceivedFromUpper:vector(packetBytes) ETV
attr interpolationmode none
attr title "packets received from upper layer, vector(packetBytes)"
vector 170 Scenario.node[4].wlan[0].mac.dcf.channelAccess.pendingQueue packetPushed:vector(packetBytes) ETV
attr interpolationmode none
attr title "packet pushed, vector(packetBytes)"
vector 171 Scenario.node[4].wlan[0].mac.dcf.channelAccess.pendingQueue queueLength:vector ETV
attr interpolationmode sample-hold
attr source "count(packetPushed) - count(packetPopped) - count(packetRemoved) - count(packetDropped)"
attr title "queue length, vector"
vector 172 Scenario.node[4].wlan[0].mac.dcf.channelAccess.contention backoffPeriodGenerated:vector ETV
attr interpolationmode none
attr title "backoff periods, vector"
vector 173 Scenario.node[4].wlan[0].mac.dcf.channelAccess.contention backoffActive:vector ETV
attr interpolationmode sample-hold
attr source count(backoffStarted)-count(backoffStopped)
attr title "backoff active, vector"
vector 174 Scenario.node[3].wlan[0].mac packetReceivedFromLower:vector(packetBytes) ETV
attr interpolationmode none
attr title "packets received from lower layer, vector(packetBytes)"
vector 175 Scenario.node[3].wlan[0].mac.dcf packetReceivedFromPeer:vector(packetBytes) ETV
attr interpolationmode none
attr title "packets received, vector(packetBytes)"
vector 176 Scenario.node[3].wlan[0].mac.dcf packetReceivedFromPeerMulticast:vector(packetBytes) ETV
attr interpolationmode none
attr source ieee80211Multicast(packetReceivedFromPeer)
attr title "packets received: multicast, vector(packetBytes)"
vector 177 Scenario.node[3].wlan[0].mac.dcf packetReceivedFromPeerWithoutRetry:vector(packetBytes) ETV
attr interpolationmode none
attr source ieee80211NotRetry(packetReceivedFromPeer)
attr title "packets received: without retry, vector(packetBytes)"
vector 178 Scenario.node[3].wlan[0].mac packetSentToUpper:vector(packetBytes) ETV
attr interpolationmode none
attr title "packets sent to upper layer, vector(packetBytes)"
vector 179 Scenario.node[3].udp packetReceived:vector(packetBytes) ETV
attr interpolationmode none
attr source packetReceived
attr title "packets received, vector(packetBytes)"
vector 180 Scenario.node[3].udp passedUpPk:vector(count) ETV
attr interpolationmode none
attr source packetSentToUpper
attr title "packets passed up, vector(count)"
vector 181 Scenario.node[3].app[0] packetReceived:vector(packetBytes) ETV
attr interpolationmode none
attr source packetReceived
attr title "packets received, vector(packetBytes)"
vector 182 Scenario.node[3].app[0] throughput:vector ETV
attr source throughput(packetReceived)
attr title "throughput, vector"
attr unit bps
vector 183 Scenario.node[3].app[0] rcvdPkLifetime:vector ETV
attr interpolationmode none
attr source dataAge(packetReceived)
attr title "received packet lifetime, vector"
attr unit s
vector 184 Scenario.node[15].wlan[0].mac packetReceivedFromLower:vector(packetBytes) ETV
attr interpolationmode none
attr title "packets received from lower layer, vector(packetBytes)"
vector 185 Scenario.node[15].wlan[0].mac.dcf packetReceivedFromPeer:vector(packetBytes) ETV
attr interpolationmode none
attr title "packets received, vector(packetBytes)"
vector 186 Scenario.node[15].wlan[0].mac.dcf packetReceivedFromPeerMulticast:vector(packetBytes) ETV
attr interpolationmode none
attr source ieee80211Multicast(packetReceivedFromPeer)
attr title "packets received: multicast, vector(packetBytes)"
vector 187 Scenario.node[15].wlan[0].mac.dcf packetReceivedFromPeerWithoutRetry:vector(packetBytes) ETV
attr interpolationmode none
attr source ieee80211NotRetry(packetReceivedFromPeer)
attr title "packets received: without retry, vector(packetBytes)"
vector 188 Scenario.node[15].wlan[0].mac packetSentToUpper:vector(packetBytes) ETV
attr interpolationmode none
attr title "packets sent to upper layer, vector(packetBytes)"
vector 189 Scenario.node[15].udp packetReceived:vector(packetBytes) ETV
attr interpolationmode none
attr source packetReceived
attr title "packets received, vector(packetBytes)"
vector 190 Scenario.node[15].udp passedUpPk:vector(count) ETV
attr interpolationmode none
attr source packetSentToUpper
attr title "packets passed up, vector(count)"
vector 191 Scenario.node[15].app[0] packetReceived:vector(packetBytes) ETV
attr interpolationmode none
attr source packetReceived
attr title "packets received, vector(packetBytes)"
vector 192 Scenario.node[15].app[0] throughput:vector ETV
attr source throughput(packetReceived)
attr title "throughput, vector"
attr unit bps
vector 193 Scenario.node[15].app[0] rcvdPkLifetime:vector ETV
attr interpolationmode none
attr source dataAge(packetReceived)
attr title "received packet lifetime, vector"
attr unit s
vector 194 Scenario.node[15].app[0] packetSent:vector(packetBytes) ETV
attr interpolationmode none
attr source packetSent
attr title "packets sent, vector(packetBytes)"
vector 195 Scenario.node[15].udp packetSent:vector(packetBytes) ETV
attr interpolationmode none
attr source packetSent
attr title "packets sent, vector(packetBytes)"
vector 196 Scenario.node[15].lo[0].lo rcvdPkFromHl:vector(packetBytes) ETV
attr interpolationmode none
attr source packetReceivedFromUpper
attr title "packets received from higher layer, vector(packetBytes)"
vector 197 Scenario.node[15].lo[0].lo passedUpPk:vector(packetBytes) ETV
attr interpolationmode none
attr source packetSentToUpper
attr title "packets passed to higher layer, vector(packetBytes)"
vector 198 Scenario.node[15].wlan[0].mac packetReceivedFromUpper:vector(packetBytes) ETV
attr interpolationmode none
attr title "packets received from upper layer, vector(packetBytes)"
vector 199 Scenario.node[15].wlan[0].mac.dcf.channelAccess.pendingQueue packetPushed:vector(packetBytes) ETV
attr interpolationmode none
attr title "packet pushed, vector(packetBytes)"
vector 200 Scenario.node[15].wlan[0].mac.dcf.channelAccess.pendingQueue queueLength:vector ETV
attr interpolationmode sample-hold
attr source "count(packetPushed) - count(packetPopped) - count(packetRemoved) - count(packetDropped)"
attr title "queue length, vector"
vector 201 Scenario.node[15].wlan[0].mac.dcf.channelAccess.contention backoffPeriodGenerated:vector ETV
attr interpolationmode none
attr title "backoff periods, vector"
vector 202 Scenario.node[15].wlan[0].mac.dcf.channelAccess.contention backoffActive:vector ETV
attr interpolationmode sample-hold
attr source count(backoffStarted)-count(backoffStopped)
attr title "backoff active, vector"
vector 203 Scenario.node[16].wlan[0].mac packetReceivedFromLower:vector(packetBytes) ETV
attr interpolationmode none
attr title "packets received from lower layer, vector(packetBytes)"
vector 204 Scenario.node[16].wlan[0].mac.dcf packetReceivedFromPeer:vector(packetBytes) ETV
attr interpolationmode none
attr title "packets received, vector(packetBytes)"
vector 205 Scenario.node[16].wlan[0].mac.dcf packetReceivedFromPeerMulticast:vector(packetBytes) ETV
attr interpolationmode none
attr source ieee80211Multicast(packetReceivedFromPeer)
attr title "packets received: multicast, vector(packetBytes)"
vector 206 Scenario.node[16].wlan[0].mac.dcf packetReceivedFromPeerWithoutRetry:vector(packetBytes) ETV
attr interpolationmode none
attr source ieee80211NotRetry(packetReceivedFromPeer)
attr title "packets received: without retry, vector(packetBytes)"
vector 207 Scenario.node[16].wlan[0].mac packetSentToUpper:vector(packetBytes) ETV
attr interpolationmode none
attr title "packets sent to upper layer, vector(packetBytes)"
vector 208 Scenario.node[16].udp packetReceived:vector(packetBytes) ETV
attr interpolationmode none
attr source packetReceived
attr title "packets received, vector(packetBytes)"
vector 209 Scenario.node[16].udp passedUpPk:vector(count) ETV
attr interpolationmode none
attr source packetSentToUpper
attr title "packets passed up, vector(count)"
vector 210 Scenario.node[16].app[0] packetReceived:vector(packetBytes) ETV
attr interpolationmode none
attr source packetReceived
attr title "packets received, vector(packetBytes)"
vector 211 Scenario.node[16].app[0] throughput:vector ETV
attr source throughput(packetReceived)
attr title "throughput, vector"
attr unit bps
vector 212 Scenario.node[16].app[0] rcvdPkLifetime:vector ETV
attr interpolationmode none
attr source dataAge(packetReceived)
attr title "received packet lifetime, vector"
attr unit s
vector 213 Scenario.node[16].app[0] packetSent:vector(packetBytes) ETV
attr interpolationmode none
attr source packetSent
attr title "packets sent, vector(packetBytes)"
vector 214 Scenario.node[16].udp packetSent:vector(packetBytes) ETV
attr interpolationmode none
attr source packetSent
attr title "packets sent, vector(packetBytes)"
vector 215 Scenario.node[16].lo[0].lo rcvdPkFromHl:vector(packetBytes) ETV
attr interpolationmode none
attr source packetReceivedFromUpper
attr title "packets received from higher layer, vector(packetBytes)"
vector 216 Scenario.node[16].lo[0].lo passedUpPk:vector(packetBytes) ETV
attr interpolationmode none
attr source packetSentToUpper
attr title "packets passed to higher layer, vector(packetBytes)"
vector 217 Scenario.node[16].wlan[0].mac packetReceivedFromUpper:vector(packetBytes) ETV
attr interpolationmode none
attr title "packets received from upper layer, vector(packetBytes)"
vector 218 Scenario.node[16].wlan[0].mac.dcf.channelAccess.pendingQueue packetPushed:vector(packetBytes) ETV
attr interpolationmode none
attr title "packet pushed, vector(packetBytes)"
vector 219 Scenario.node[16].wlan[0].mac.dcf.channelAccess.pendingQueue queueLength:vector ETV
attr interpolationmode sample-hold
attr source "count(packetPushed) - count(packetPopped) - count(packetRemoved) - count(packetDropped)"
attr title "queue length, vector"
vector 220 Scenario.node[16].wlan[0].mac.dcf.channelAccess.contention backoffPeriodGenerated:vector ETV
attr interpolationmode none
attr title "backoff periods, vector"
vector 221 Scenario.node[16].wlan[0].mac.dcf.channelAccess.contention backoffActive:vector ETV
attr interpolationmode sample-hold
attr source count(backoffStarted)-count(backoffStopped)
attr title "backoff active, vector"
vector 222 Scenario.node[1].wlan[0].mac packetReceivedFromLower:vector(packetBytes) ETV
attr interpolationmode none
attr title "packets received from lower layer, vector(packetBytes)"
vector 223 Scenario.node[1].wlan[0].mac.dcf packetReceivedFromPeer:vector(packetBytes) ETV
attr interpolationmode none
attr title "packets received, vector(packetBytes)"
vector 224 Scenario.node[1].wlan[0].mac.dcf packetReceivedFromPeerMulticast:vector(packetBytes) ETV
attr interpolationmode none
attr source ieee80211Multicast(packetReceivedFromPeer)
attr title "packets received: multicast, vector(packetBytes)"
vector 225 Scenario.node[1].wlan[0].mac.dcf packetReceivedFromPeerWithoutRetry:vector(packetBytes) ETV
attr interpolationmode none
attr source ieee80211NotRetry(packetReceivedFromPeer)
attr title "packets received: without retry, vector(packetBytes)"
vector 226 Scenario.node[1].wlan[0].mac packetSentToUpper:vector(packetBytes) ETV
attr interpolationmode none
attr title "packets sent to upper layer, vector(packetBytes)"
vector 227 Scenario.node[1].udp packetReceived:vector(packetBytes) ETV
attr interpolationmode none
attr source packetReceived
attr title "packets received, vector(packetBytes)"
vector 228 Scenario.node[1].udp passedUpPk:vector(count) ETV
attr interpolationmode none
attr source packetSentToUpper
attr title "packets passed up, vector(count)"
vector 229 Scenario.node[1].app[0] packetReceived:vector(packetBytes) ETV
attr interpolationmode none
attr source packetReceived
attr title "packets received, vector(packetBytes)"
vector 230 Scenario.node[1].app[0] throughput:vector ETV
attr source throughput(packetReceived)
attr title "throughput, vector"
attr unit bps
vector 231 Scenario.node[1].app[0] rcvdPkLifetime:vector ETV
attr interpolationmode none
attr source dataAge(packetReceived)
attr title "received packet lifetime, vector"
attr unit s
vector 232 Scenario.node[11].wlan[0].mac packetReceivedFromLower:vector(packetBytes) ETV
attr interpolationmode none
attr title "packets received from lower layer, vector(packetBytes)"
vector 233 Scenario.node[11].wlan[0].mac.dcf packetReceivedFromPeer:vector(packetBytes) ETV
attr interpolationmode none
attr title "packets received, vector(packetBytes)"
vector 234 Scenario.node[11].wlan[0].mac.dcf packetReceivedFromPeerMulticast:vector(packetBytes) ETV
attr interpolationmode none
attr source ieee80211Multicast(packetReceivedFromPeer)
attr title "packets received: multicast, vector(packetBytes)"
vector 235 Scenario.node[11].wlan[0].mac.dcf packetReceivedFromPeerWithoutRetry:vector(packetBytes) ETV
attr interpolationmode none
attr source ieee80211NotRetry(packetReceivedFromPeer)
attr title "packets received: without retry, vector(packetBytes)"
vector 236 Scenario.node[11].wlan[0].mac packetSentToUpper:vector(packetBytes) ETV
attr interpolationmode none
attr title "packets sent to upper layer, vector(packetBytes)"
vector 237 Scenario.node[11].udp packetReceived:vector(packetBytes) ETV
attr interpolationmode none
attr source packetReceived
attr title "packets received, vector(packetBytes)"
vector 238 Scenario.node[11].udp passedUpPk:vector(count) ETV
attr interpolationmode none
attr source packetSentToUpper
attr title "packets passed up, vector(count)"
vector 239 Scenario.node[11].app[0] packetReceived:vector(packetBytes) ETV
attr interpolationmode none
attr source packetReceived
attr title "packets received, vector(packetBytes)"
vector 240 Scenario.node[11].app[0] throughput:vector ETV
attr source throughput(packetReceived)
attr title "throughput, vector"
attr unit bps
vector 241 Scenario.node[11].app[0] rcvdPkLifetime:vector ETV
attr interpolationmode none
attr source dataAge(packetReceived)
attr title "received packet lifetime, vector"
attr unit s
vector 242 Scenario.node[17].wlan[0].mac packetReceivedFromLower:vector(packetBytes) ETV
attr interpolationmode none
attr title "packets received from lower layer, vector(packetBytes)"
vector 243 Scenario.node[17].wlan[0].mac.dcf packetReceivedFromPeer:vector(packetBytes) ETV
attr interpolationmode none
attr title "packets received, vector(packetBytes)"
vector 244 Scenario.node[17].wlan[0].mac.dcf packetReceivedFromPeerMulticast:vector(packetBytes) ETV
attr interpolationmode none
attr source ieee80211Multicast(packetReceivedFromPeer)
attr title "packets received: multicast, vector(packetBytes)"
vector 245 Scenario.node[17].wlan[0].mac.dcf packetReceivedFromPeerWithoutRetry:vector(packetBytes) ETV
attr interpolationmode none
attr source ieee80211NotRetry(packetReceivedFromPeer)
attr title "packets received: without retry, vector(packetBytes)"
vector 246 Scenario.node[17].wlan[0].mac packetSentToUpper:vector(packetBytes) ETV
attr interpolationmode none
attr title "packets sent to upper layer, vector(packetBytes)"
vector 247 Scenario.node[17].udp packetReceived:vector(packetBytes) ETV
attr interpolationmode none
attr source packetReceived
attr title "packets received, vector(packetBytes)"
vector 248 Scenario.node[17].udp passedUpPk:vector(count) ETV
attr interpolationmode none
attr source packetSentToUpper
attr title "packets passed up, vector(count)"
vector 249 Scenario.node[17].app[0] packetReceived:vector(packetBytes) ETV
attr interpolationmode none
attr source packetReceived
attr title "packets received, vector(packetBytes)"
vector 250 Scenario.node[17].app[0] throughput:vector ETV
attr source throughput(packetReceived)
attr title "throughput, vector"
attr unit bps
vector 251 Scenario.node[17].app[0] rcvdPkLifetime:vector ETV
attr interpolationmode none
attr source dataAge(packetReceived)
attr title "received packet lifetime, vector"
attr unit s
vector 252 Scenario.node[17].app[0] packetSent:vector(packetBytes) ETV
attr interpolationmode none
attr source packetSent
attr title "packets sent, vector(packetBytes)"
vector 253 Scenario.node[17].udp packetSent:vector(packetBytes) ETV
attr interpolationmode none
attr source packetSent
attr title "packets sent, vector(packetBytes)"
vector 254 Scenario.node[17].lo[0].lo rcvdPkFromHl:vector(packetBytes) ETV
attr interpolationmode none
attr source packetReceivedFromUpper
attr title "packets received from higher layer, vector(packetBytes)"
vector 255 Scenario.node[17].lo[0].lo passedUpPk:vector(packetBytes) ETV
attr interpolationmode none
attr source packetSentToUpper
attr title "packets passed to higher layer, vector(packetBytes)"
vector 256 Scenario.node[17].wlan[0].mac packetReceivedFromUpper:vector(packetBytes) ETV
attr interpolationmode none
attr title "packets received from upper layer, vector(packetBytes)"
vector 257 Scenario.node[17].wlan[0].mac.dcf.channelAccess.pendingQueue packetPushed:vector(packetBytes) ETV
attr interpolationmode none
attr title "packet pushed, vector(packetBytes)"
vector 258 Scenario.node[17].wlan[0].mac.dcf.channelAccess.pendingQueue queueLength:vector ETV
attr interpolationmode sample-hold
attr source "count(packetPushed) - count(packetPopped) - count(packetRemoved) - count(packetDropped)"
attr title "queue length, vector"
vector 259 Scenario.node[17].wlan[0].mac.dcf.channelAccess.contention backoffPeriodGenerated:vector ETV
attr interpolationmode none
attr title "backoff periods, vector"
vector 260 Scenario.node[17].wlan[0].mac.dcf.channelAccess.contention backoffActive:vector ETV
attr interpolationmode sample-hold
attr source count(backoffStarted)-count(backoffStopped)
attr title "backoff active, vector"
vector 261 Scenario.node[14].wlan[0].mac packetReceivedFromLower:vector(packetBytes) ETV
attr interpolationmode none
attr title "packets received from lower layer, vector(packetBytes)"
vector 262 Scenario.node[14].wlan[0].mac.dcf packetReceivedFromPeer:vector(packetBytes) ETV
attr interpolationmode none
attr title "packets received, vector(packetBytes)"
vector 263 Scenario.node[14].wlan[0].mac.dcf packetReceivedFromPeerMulticast:vector(packetBytes) ETV
attr interpolationmode none
attr source ieee80211Multicast(packetReceivedFromPeer)
attr title "packets received: multicast, vector(packetBytes)"
vector 264 Scenario.node[14].wlan[0].mac.dcf packetReceivedFromPeerWithoutRetry:vector(packetBytes) ETV
attr interpolationmode none
attr source ieee80211NotRetry(packetReceivedFromPeer)
attr title "packets received: without retry, vector(packetBytes)"
vector 265 Scenario.node[14].wlan[0].mac packetSentToUpper:vector(packetBytes) ETV
attr interpolationmode none
attr title "packets sent to upper layer, vector(packetBytes)"
vector 266 Scenario.node[14].udp packetReceived:vector(packetBytes) ETV
attr interpolationmode none
attr source packetReceived
attr title "packets received, vector(packetBytes)"
vector 267 Scenario.node[14].udp passedUpPk:vector(count) ETV
attr interpolationmode none
attr source packetSentToUpper
attr title "packets passed up, vector(count)"
vector 268 Scenario.node[14].app[0] packetReceived:vector(packetBytes) ETV
attr interpolationmode none
attr source packetReceived
attr title "packets received, vector(packetBytes)"
vector 269 Scenario.node[14].app[0] throughput:vector ETV
attr source throughput(packetReceived)
attr title "throughput, vector"
attr unit bps
vector 270 Scenario.node[14].app[0] rcvdPkLifetime:vector ETV
attr interpolationmode none
attr source dataAge(packetReceived)
attr title "received packet lifetime, vector"
attr unit s
vector 271 Scenario.node[14].app[0] packetSent:vector(packetBytes) ETV
attr interpolationmode none
attr source packetSent
attr title "packets sent, vector(packetBytes)"
vector 272 Scenario.node[14].udp packetSent:vector(packetBytes) ETV
attr interpolationmode none
attr source packetSent
attr title "packets sent, vector(packetBytes)"
vector 273 Scenario.node[14].lo[0].lo rcvdPkFromHl:vector(packetBytes) ETV
attr interpolationmode none
attr source packetReceivedFromUpper
attr title "packets received from higher layer, vector(packetBytes)"
vector 274 Scenario.node[14].lo[0].lo passedUpPk:vector(packetBytes) ETV
attr interpolationmode none
attr source packetSentToUpper
attr title "packets passed to higher layer, vector(packetBytes)"
vector 275 Scenario.node[14].wlan[0].mac packetReceivedFromUpper:vector(packetBytes) ETV
attr interpolationmode none
attr title "packets received from upper layer, vector(packetBytes)"
vector 276 Scenario.node[14].wlan[0].mac.dcf.channelAccess.pendingQueue packetPushed:vector(packetBytes) ETV
attr interpolationmode none
attr title "packet pushed, vector(packetBytes)"
vector 277 Scenario.node[14].wlan[0].mac.dcf.channelAccess.pendingQueue queueLength:vector ETV
attr interpolationmode sample-hold
attr source "count(packetPushed) - count(packetPopped) - count(packetRemoved) - count(packetDropped)"
attr title "queue length, vector"
vector 278 Scenario.node[14].wlan[0].mac.dcf.channelAccess.contention backoffPeriodGenerated:vector ETV
attr interpolationmode none
attr title "backoff periods, vector"
vector 279 Scenario.node[14].wlan[0].mac.dcf.channelAccess.contention backoffActive:vector ETV
attr interpolationmode sample-hold
attr source count(backoffStarted)-count(backoffStopped)
attr title "backoff active, vector"
vector 280 Scenario.node[9].wlan[0].mac packetReceivedFromLower:vector(packetBytes) ETV
attr interpolationmode none
attr title "packets received from lower layer, vector(packetBytes)"
vector 281 Scenario.node[9].wlan[0].mac.dcf packetReceivedFromPeer:vector(packetBytes) ETV
attr interpolationmode none
attr title "packets received, vector(packetBytes)"
vector 282 Scenario.node[9].wlan[0].mac.dcf packetReceivedFromPeerMulticast:vector(packetBytes) ETV
attr interpolationmode none
attr source ieee80211Multicast(packetReceivedFromPeer)
attr title "packets received: multicast, vector(packetBytes)"
vector 283 Scenario.node[9].wlan[0].mac.dcf packetReceivedFromPeerWithoutRetry:vector(packetBytes) ETV
attr interpolationmode none
attr source ieee80211NotRetry(packetReceivedFromPeer)
attr title "packets received: without retry, vector(packetBytes)"
vector 284 Scenario.node[9].wlan[0].mac packetSentToUpper:vector(packetBytes) ETV
attr interpolationmode none
attr title "packets sent to upper layer, vector(packetBytes)"
vector 285 Scenario.node[9].udp packetReceived:vector(packetBytes) ETV
attr interpolationmode none
attr source packetReceived
attr title "packets received, vector(packetBytes)"
vector 286 Scenario.node[9].udp passedUpPk:vector(count) ETV
attr interpolationmode none
attr source packetSentToUpper
attr title "packets passed up, vector(count)"
vector 287 Scenario.node[9].app[0] packetReceived:vector(packetBytes) ETV
attr interpolationmode none
attr source packetReceived
attr title "packets received, vector(packetBytes)"
vector 288 Scenario.node[9].app[0] throughput:vector ETV
attr source throughput(packetReceived)
attr title "throughput, vector"
attr unit bps
vector 289 Scenario.node[9].app[0] rcvdPkLifetime:vector ETV
attr interpolationmode none
attr source dataAge(packetReceived)
attr title "received packet lifetime, vector"
attr unit s
vector 290 Scenario.node[10].wlan[0].mac packetReceivedFromLower:vector(packetBytes) ETV
attr interpolationmode none
attr title "packets received from lower layer, vector(packetBytes)"
vector 291 Scenario.node[10].wlan[0].mac.dcf packetReceivedFromPeer:vector(packetBytes) ETV
attr interpolationmode none
attr title "packets received, vector(packetBytes)"
vector 292 Scenario.node[10].wlan[0].mac.dcf packetReceivedFromPeerMulticast:vector(packetBytes) ETV
attr interpolationmode none
attr source ieee80211Multicast(packetReceivedFromPeer)
attr title "packets received: multicast, vector(packetBytes)"
vector 293 Scenario.node[10].wlan[0].mac.dcf packetReceivedFromPeerWithoutRetry:vector(packetBytes) ETV
attr interpolationmode none
attr source ieee80211NotRetry(packetReceivedFromPeer)
attr title "packets received: without retry, vector(packetBytes)"
vector 294 Scenario.node[10].wlan[0].mac packetSentToUpper:vector(packetBytes) ETV
attr interpolationmode none
attr title "packets sent to upper layer, vector(packetBytes)"
vector 295 Scenario.node[10].udp packetReceived:vector(packetBytes) ETV
attr interpolationmode none
attr source packetReceived
attr title "packets received, vector(packetBytes)"
vector 296 Scenario.node[10].udp passedUpPk:vector(count) ETV
attr interpolationmode none
attr source packetSentToUpper
attr title "packets passed up, vector(count)"
vector 297 Scenario.node[10].app[0] packetReceived:vector(packetBytes) ETV
attr interpolationmode none
attr source packetReceived
attr title "packets received, vector(packetBytes)"
vector 298 Scenario.node[10].app[0] throughput:vector ETV
attr source throughput(packetReceived)
attr title "throughput, vector"
attr unit bps
vector 299 Scenario.node[10].app[0] rcvdPkLifetime:vector ETV
attr interpolationmode none
attr source dataAge(packetReceived)
attr title "received packet lifetime, vector"
attr unit s
vector 300 Scenario.node[8].wlan[0].mac packetReceivedFromLower:vector(packetBytes) ETV
attr interpolationmode none
attr title "packets received from lower layer, vector(packetBytes)"
vector 301 Scenario.node[8].wlan[0].mac.dcf packetReceivedFromPeer:vector(packetBytes) ETV
attr interpolationmode none
attr title "packets received, vector(packetBytes)"
vector 302 Scenario.node[8].wlan[0].mac.dcf packetReceivedFromPeerMulticast:vector(packetBytes) ETV
attr interpolationmode none
attr source ieee80211Multicast(packetReceivedFromPeer)
attr title "packets received: multicast, vector(packetBytes)"
vector 303 Scenario.node[8].wlan[0].mac.dcf packetReceivedFromPeerWithoutRetry:vector(packetBytes) ETV
attr interpolationmode none
attr source ieee80211NotRetry(packetReceivedFromPeer)
attr title "packets received: without retry, vector(packetBytes)"
vector 304 Scenario.node[8].wlan[0].mac packetSentToUpper:vector(packetBytes) ETV
attr interpolationmode none
attr title "packets sent to upper layer, vector(packetBytes)"
vector 305 Scenario.node[8].udp packetReceived:vector(packetBytes) ETV
attr interpolationmode none
attr source packetReceived
attr title "packets received, vector(packetBytes)"
vector 306 Scenario.node[8].udp passedUpPk:vector(count) ETV
attr interpolationmode none
attr source packetSentToUpper
attr title "packets passed up, vector(count)"
vector 307 Scenario.node[8].app[0] packetReceived:vector(packetBytes) ETV
attr interpolationmode none
attr source packetReceived
attr title "packets received, vector(packetBytes)"
vector 308 Scenario.node[8].app[0] throughput:vector ETV
attr source throughput(packetReceived)
attr title "throughput, vector"
attr unit bps
vector 309 Scenario.node[8].app[0] rcvdPkLifetime:vector ETV
attr interpolationmode none
attr source dataAge(packetReceived)
attr title "received packet lifetime, vector"
attr unit s
vector 310 Scenario.node[2].wlan[0].mac packetReceivedFromLower:vector(packetBytes) ETV
attr interpolationmode none
attr title "packets received from lower layer, vector(packetBytes)"
vector 311 Scenario.node[2].wlan[0].mac.dcf packetReceivedFromPeer:vector(packetBytes) ETV
attr interpolationmode none
attr title "packets received, vector(packetBytes)"
vector 312 Scenario.node[2].wlan[0].mac.dcf packetReceivedFromPeerMulticast:vector(packetBytes) ETV
attr interpolationmode none
attr source ieee80211Multicast(packetReceivedFromPeer)
attr title "packets received: multicast, vector(packetBytes)"
vector 313 Scenario.node[2].wlan[0].mac.dcf packetReceivedFromPeerWithoutRetry:vector(packetBytes) ETV
attr interpolationmode none
attr source ieee80211NotRetry(packetReceivedFromPeer)
attr title "packets received: without retry, vector(packetBytes)"
vector 314 Scenario.node[2].wlan[0].mac packetSentToUpper:vector(packetBytes) ETV
attr interpolationmode none
attr title "packets sent to upper layer, vector(packetBytes)"
vector 315 Scenario.node[2].udp packetReceived:vector(packetBytes) ETV
attr interpolationmode none
attr source packetReceived
attr title "packets received, vector(packetBytes)"
vector 316 Scenario.node[2].udp passedUpPk:vector(count) ETV
attr interpolationmode none
attr source packetSentToUpper
attr title "packets passed up, vector(count)"
vector 317 Scenario.node[2].app[0] packetReceived:vector(packetBytes) ETV
attr interpolationmode none
attr source packetReceived
attr title "packets received, vector(packetBytes)"
vector 318 Scenario.node[2].app[0] throughput:vector ETV
attr source throughput(packetReceived)
attr title "throughput, vector"
attr unit bps
vector 319 Scenario.node[2].app[0] rcvdPkLifetime:vector ETV
attr interpolationmode none
attr source dataAge(packetReceived)
attr title "received packet lifetime, vector"
attr unit s
vector 320 Scenario.node[7].wlan[0].mac packetReceivedFromLower:vector(packetBytes) ETV
attr interpolationmode none
attr title "packets received from lower layer, vector(packetBytes)"
vector 321 Scenario.node[7].wlan[0].mac.dcf packetReceivedFromPeer:vector(packetBytes) ETV
attr interpolationmode none
attr title "packets received, vector(packetBytes)"
vector 322 Scenario.node[7].wlan[0].mac.dcf packetReceivedFromPeerMulticast:vector(packetBytes) ETV
attr interpolationmode none
attr source ieee80211Multicast(packetReceivedFromPeer)
attr title "packets received: multicast, vector(packetBytes)"
vector 323 Scenario.node[7].wlan[0].mac.dcf packetReceivedFromPeerWithoutRetry:vector(packetBytes) ETV
attr interpolationmode none
attr source ieee80211NotRetry(packetReceivedFromPeer)
attr title "packets received: without retry, vector(packetBytes)"
vector 324 Scenario.node[7].wlan[0].mac packetSentToUpper:vector(packetBytes) ETV
attr interpolationmode none
attr title "packets sent to upper layer, vector(packetBytes)"
vector 325 Scenario.node[7].udp packetReceived:vector(packetBytes) ETV
attr interpolationmode none
attr source packetReceived
attr title "packets received, vector(packetBytes)"
vector 326 Scenario.node[7].udp passedUpPk:vector(count) ETV
attr interpolationmode none
attr source packetSentToUpper
attr title "packets passed up, vector(count)"
vector 327 Scenario.node[7].app[0] packetReceived:vector(packetBytes) ETV
attr interpolationmode none
attr source packetReceived
attr title "packets received, vector(packetBytes)"
vector 328 Scenario.node[7].app[0] throughput:vector ETV
attr source throughput(packetReceived)
attr title "throughput, vector"
attr unit bps
vector 329 Scenario.node[7].app[0] rcvdPkLifetime:vector ETV
attr interpolationmode none
attr source dataAge(packetReceived)
attr title "received packet lifetime, vector"
attr unit s
vector 330 Scenario.node[7].app[0] packetSent:vector(packetBytes) ETV
attr interpolationmode none
attr source packetSent
attr title "packets sent, vector(packetBytes)"
vector 331 Scenario.node[7].udp packetSent:vector(packetBytes) ETV
attr interpolationmode none
attr source packetSent
attr title "packets sent, vector(packetBytes)"
vector 332 Scenario.node[7].lo[0].lo rcvdPkFromHl:vector(packetBytes) ETV
attr interpolationmode none
attr source packetReceivedFromUpper
attr title "packets received from higher layer, vector(packetBytes)"
vector 333 Scenario.node[7].lo[0].lo passedUpPk:vector(packetBytes) ETV
attr interpolationmode none
attr source packetSentToUpper
attr title "packets passed to higher layer, vector(packetBytes)"
vector 334 Scenario.node[7].wlan[0].mac packetReceivedFromUpper:vector(packetBytes) ETV
attr interpolationmode none
attr title "packets received from upper layer, vector(packetBytes)"
vector 335 Scenario.node[7].wlan[0].mac.dcf.channelAccess.pendingQueue packetPushed:vector(packetBytes) ETV
attr interpolationmode none
attr title "packet pushed, vector(packetBytes)"
vector 336 Scenario.node[7].wlan[0].mac.dcf.channelAccess.pendingQueue queueLength:vector ETV
attr interpolationmode sample-hold
attr source "count(packetPushed) - count(packetPopped) - count(packetRemoved) - count(packetDropped)"
attr title "queue length, vector"
vector 337 Scenario.node[7].wlan[0].mac.dcf.channelAccess.contention backoffPeriodGenerated:vector ETV
attr interpolationmode none
attr title "backoff periods, vector"
vector 338 Scenario.node[7].wlan[0].mac.dcf.channelAccess.contention backoffActive:vector ETV
attr interpolationmode sample-hold
attr source count(backoffStarted)-count(backoffStopped)
attr title "backoff active, vector"
vector 339 Scenario.node[6].wlan[0].mac.dcf.channelAccess.pendingQueue packetPopped:vector(packetBytes) ETV
attr interpolationmode none
attr title "packet popped, vector(packetBytes)"
vector 340 Scenario.node[6].wlan[0].mac.dcf.channelAccess.pendingQueue queueingTime:vector ETV
attr interpolationmode none
attr source queueingTime(packetPopped)
attr title "queueing times, vector"
attr unit s
vector 341 Scenario.node[6].wlan[0].mac.dcf.channelAccess.inProgressFrames queueLength:vector ETV
attr interpolationmode sample-hold
attr source "count(packetEnqueued) - count(packetDequeued)"
attr title "queue length, vector"
vector 342 Scenario.node[6].wlan[0].mac.dcf datarateSelected:vector ETV
attr interpolationmode none
attr title "datarates selected, vector"
vector 343 Scenario.node[6].wlan[0].mac packetSentToLower:vector(packetBytes) ETV
attr interpolationmode none
attr title "packets sent to lower layer, vector(packetBytes)"
vector 344 Scenario.node[6].wlan[0].mac.dcf frameSequenceActive:vector ETV
attr interpolationmode sample-hold
attr source count(frameSequenceStarted)-count(frameSequenceFinished)
attr title "frame sequence active, vector"
vector 345 Scenario.node[6].wlan[0].radio transmissionState:vector ETV
attr interpolationmode sample-hold
attr source transmissionStateChanged
attr title "Radio transmission state, vector"
vector 346 Scenario.node[6].wlan[0].mac.dcf packetSentToPeer:vector(packetBytes) ETV
attr interpolationmode none
attr title "packets sent, vector(packetBytes)"
vector 347 Scenario.node[6].wlan[0].mac.dcf packetSentToPeerMulticast:vector(packetBytes) ETV
attr interpolationmode none
attr source ieee80211Multicast(packetSentToPeer)
attr title "packets sent: multicast, vector(packetBytes)"
vector 348 Scenario.node[6].wlan[0].mac.dcf packetSentToPeerWithoutRetry:vector(packetBytes) ETV
attr interpolationmode none
attr source ieee80211NotRetry(packetSentToPeer)
attr title "packets sent: without retry, vector(packetBytes)"
vector 349 Scenario.node[6].wlan[0].mac.dcf.channelAccess.inProgressFrames queueingTime:vector ETV
attr interpolationmode none
attr source queueingTime(packetDequeued)
attr title "queueing times, vector"
vector 350 Scenario.node[0].wlan[0].mac packetReceivedFromLower:vector(packetBytes) ETV
attr interpolationmode none
attr title "packets received from lower layer, vector(packetBytes)"
vector 351 Scenario.node[0].wlan[0].mac.dcf packetReceivedFromPeer:vector(packetBytes) ETV
attr interpolationmode none
attr title "packets received, vector(packetBytes)"
vector 352 Scenario.node[0].wlan[0].mac.dcf packetReceivedFromPeerMulticast:vector(packetBytes) ETV
attr interpolationmode none
attr source ieee80211Multicast(packetReceivedFromPeer)
attr title "packets received: multicast, vector(packetBytes)"
vector 353 Scenario.node[0].wlan[0].mac.dcf packetReceivedFromPeerWithoutRetry:vector(packetBytes) ETV
attr interpolationmode none
attr source ieee80211NotRetry(packetReceivedFromPeer)
attr title "packets received: without retry, vector(packetBytes)"
vector 354 Scenario.node[0].wlan[0].mac packetSentToUpper:vector(packetBytes) ETV
attr interpolationmode none
attr title "packets sent to upper layer, vector(packetBytes)"
vector 355 Scenario.node[7].wlan[0].mac.dcf.channelAccess.pendingQueue packetPopped:vector(packetBytes) ETV
attr interpolationmode none
attr title "packet popped, vector(packetBytes)"
vector 356 Scenario.node[7].wlan[0].mac.dcf.channelAccess.pendingQueue queueingTime:vector ETV
attr interpolationmode none
attr source queueingTime(packetPopped)
attr title "queueing times, vector"
attr unit s
vector 357 Scenario.node[7].wlan[0].mac.dcf.channelAccess.inProgressFrames queueLength:vector ETV
attr interpolationmode sample-hold
attr source "count(packetEnqueued) - count(packetDequeued)"
attr title "queue length, vector"
vector 358 Scenario.node[7].wlan[0].mac.dcf datarateSelected:vector ETV
attr interpolationmode none
attr title "datarates selected, vector"
vector 359 Scenario.node[7].wlan[0].mac packetSentToLower:vector(packetBytes) ETV
attr interpolationmode none
attr title "packets sent to lower layer, vector(packetBytes)"
vector 360 Scenario.node[7].wlan[0].mac.dcf frameSequenceActive:vector ETV
attr interpolationmode sample-hold
attr source count(frameSequenceStarted)-count(frameSequenceFinished)
attr title "frame sequence active, vector"
vector 361 Scenario.node[7].wlan[0].radio transmissionState:vector ETV
attr interpolationmode sample-hold
attr source transmissionStateChanged
attr title "Radio transmission state, vector"
vector 362 Scenario.node[7].wlan[0].mac.dcf packetSentToPeer:vector(packetBytes) ETV
attr interpolationmode none
attr title "packets sent, vector(packetBytes)"
vector 363 Scenario.node[7].wlan[0].mac.dcf packetSentToPeerMulticast:vector(packetBytes) ETV
attr interpolationmode none
attr source ieee80211Multicast(packetSentToPeer)
attr title "packets sent: multicast, vector(packetBytes)"
vector 364 Scenario.node[7].wlan[0].mac.dcf packetSentToPeerWithoutRetry:vector(packetBytes) ETV
attr interpolationmode none
attr source ieee80211NotRetry(packetSentToPeer)
attr title "packets sent: without retry, vector(packetBytes)"
vector 365 Scenario.node[7].wlan[0].mac.dcf.channelAccess.inProgressFrames queueingTime:vector ETV
attr interpolationmode none
attr source queueingTime(packetDequeued)
attr title "queueing times, vector"
vector 366 Scenario.node[17].wlan[0].mac.dcf.channelAccess.pendingQueue packetPopped:vector(packetBytes) ETV
attr interpolationmode none
attr title "packet popped, vector(packetBytes)"
vector 367 Scenario.node[17].wlan[0].mac.dcf.channelAccess.pendingQueue queueingTime:vector ETV
attr interpolationmode none
attr source queueingTime(packetPopped)
attr title "queueing times, vector"
attr unit s
vector 368 Scenario.node[17].wlan[0].mac.dcf.channelAccess.inProgressFrames queueLength:vector ETV
attr interpolationmode sample-hold
attr source "count(packetEnqueued) - count(packetDequeued)"
attr title "queue length, vector"
vector 369 Scenario.node[17].wlan[0].mac.dcf datarateSelected:vector ETV
attr interpolationmode none
attr title "datarates selected, vector"
vector 370 Scenario.node[17].wlan[0].mac packetSentToLower:vector(packetBytes) ETV
attr interpolationmode none
attr title "packets sent to lower layer, vector(packetBytes)"
vector 371 Scenario.node[17].wlan[0].mac.dcf frameSequenceActive:vector ETV
attr interpolationmode sample-hold
attr source count(frameSequenceStarted)-count(frameSequenceFinished)
attr title "frame sequence active, vector"
vector 372 Scenario.node[17].wlan[0].radio transmissionState:vector ETV
attr interpolationmode sample-hold
attr source transmissionStateChanged
attr title "Radio transmission state, vector"
vector 373 Scenario.node[15].wlan[0].mac.dcf.channelAccess.pendingQueue packetPopped:vector(packetBytes) ETV
attr interpolationmode none
attr title "packet popped, vector(packetBytes)"
vector 374 Scenario.node[15].wlan[0].mac.dcf.channelAccess.pendingQueue queueingTime:vector ETV
attr interpolationmode none
attr source queueingTime(packetPopped)
attr title "queueing times, vector"
attr unit s
vector 375 Scenario.node[15].wlan[0].mac.dcf.channelAccess.inProgressFrames queueLength:vector ETV
attr interpolationmode sample-hold
attr source "count(packetEnqueued) - count(packetDequeued)"
attr title "queue length, vector"
vector 376 Scenario.node[15].wlan[0].mac.dcf datarateSelected:vector ETV
attr interpolationmode none
attr title "datarates selected, vector"
vector 377 Scenario.node[15].wlan[0].mac packetSentToLower:vector(packetBytes) ETV
attr interpolationmode none
attr title "packets sent to lower layer, vector(packetBytes)"
vector 378 Scenario.node[15].wlan[0].mac.dcf frameSequenceActive:vector ETV
attr interpolationmode sample-hold
attr source count(frameSequenceStarted)-count(frameSequenceFinished)
attr title "frame sequence active, vector"
vector 379 Scenario.node[15].wlan[0].radio transmissionState:vector ETV
attr interpolationmode sample-hold
attr source transmissionStateChanged
attr title "Radio transmission state, vector"
vector 380 Scenario.node[17].wlan[0].mac.dcf packetSentToPeer:vector(packetBytes) ETV
attr interpolationmode none
attr title "packets sent, vector(packetBytes)"
vector 381 Scenario.node[17].wlan[0].mac.dcf packetSentToPeerMulticast:vector(packetBytes) ETV
attr interpolationmode none
attr source ieee80211Multicast(packetSentToPeer)
attr title "packets sent: multicast, vector(packetBytes)"
vector 382 Scenario.node[17].wlan[0].mac.dcf packetSentToPeerWithoutRetry:vector(packetBytes) ETV
attr interpolationmode none
attr source ieee80211NotRetry(packetSentToPeer)
attr title "packets sent: without retry, vector(packetBytes)"
vector 383 Scenario.node[17].wlan[0].mac.dcf.channelAccess.inProgressFrames queueingTime:vector ETV
attr interpolationmode none
attr source queueingTime(packetDequeued)
attr title "queueing times, vector"
vector 384 Scenario.node[16].wlan[0].mac packetDrop:vector(packetBytes) ETV
attr interpolationmode none
attr source packetDropped
attr title "packet drops, vector(packetBytes)"
vector 385 Scenario.node[16].wlan[0].mac packetDropIncorrectlyReceived:vector(packetBytes) ETV
attr interpolationmode none
attr source packetDropReasonIsIncorrectlyReceived(packetDropped)
attr title "packet drops: incorrectly received, vector(packetBytes)"
vector 386 Scenario.node[3].wlan[0].mac packetDrop:vector(packetBytes) ETV
attr interpolationmode none
attr source packetDropped
attr title "packet drops, vector(packetBytes)"
vector 387 Scenario.node[3].wlan[0].mac packetDropIncorrectlyReceived:vector(packetBytes) ETV
attr interpolationmode none
attr source packetDropReasonIsIncorrectlyReceived(packetDropped)
attr title "packet drops: incorrectly received, vector(packetBytes)"
vector 388 Scenario.node[11].wlan[0].mac packetDrop:vector(packetBytes) ETV
attr interpolationmode none
attr source packetDropped
attr title "packet drops, vector(packetBytes)"
vector 389 Scenario.node[11].wlan[0].mac packetDropIncorrectlyReceived:vector(packetBytes) ETV
attr interpolationmode none
attr source packetDropReasonIsIncorrectlyReceived(packetDropped)
attr title "packet drops: incorrectly received, vector(packetBytes)"
vector 390 Scenario.node[10].wlan[0].mac packetDrop:vector(packetBytes) ETV
attr interpolationmode none
attr source packetDropped
attr title "packet drops, vector(packetBytes)"
vector 391 Scenario.node[10].wlan[0].mac packetDropIncorrectlyReceived:vector(packetBytes) ETV
attr interpolationmode none
attr source packetDropReasonIsIncorrectlyReceived(packetDropped)
attr title "packet drops: incorrectly received, vector(packetBytes)"
vector 392 Scenario.node[5].wlan[0].mac packetDrop:vector(packetBytes) ETV
attr interpolationmode none
attr source packetDropped
attr title "packet drops, vector(packetBytes)"
vector 393 Scenario.node[5].wlan[0].mac packetDropIncorrectlyReceived:vector(packetBytes) ETV
attr interpolationmode none
attr source packetDropReasonIsIncorrectlyReceived(packetDropped)
attr title "packet drops: incorrectly received, vector(packetBytes)"
vector 394 Scenario.node[14].wlan[0].mac packetDrop:vector(packetBytes) ETV
attr interpolationmode none
attr source packetDropped
attr title "packet drops, vector(packetBytes)"
vector 395 Scenario.node[14].wlan[0].mac packetDropIncorrectlyReceived:vector(packetBytes) ETV
attr interpolationmode none
attr source packetDropReasonIsIncorrectlyReceived(packetDropped)
attr title "packet drops: incorrectly received, vector(packetBytes)"
vector 396 Scenario.node[13].wlan[0].mac packetDrop:vector(packetBytes) ETV
attr interpolationmode none
attr source packetDropped
attr title "packet drops, vector(packetBytes)"
vector 397 Scenario.node[13].wlan[0].mac packetDropIncorrectlyReceived:vector(packetBytes) ETV
attr interpolationmode none
attr source packetDropReasonIsIncorrectlyReceived(packetDropped)
attr title "packet drops: incorrectly received, vector(packetBytes)"
vector 398 Scenario.node[15].wlan[0].mac.dcf packetSentToPeer:vector(packetBytes) ETV
attr interpolationmode none
attr title "packets sent, vector(packetBytes)"
vector 399 Scenario.node[15].wlan[0].mac.dcf packetSentToPeerMulticast:vector(packetBytes) ETV
attr interpolationmode none
attr source ieee80211Multicast(packetSentToPeer)
attr title "packets sent: multicast, vector(packetBytes)"
vector 400 Scenario.node[15].wlan[0].mac.dcf packetSentToPeerWithoutRetry:vector(packetBytes) ETV
attr interpolationmode none
attr source ieee80211NotRetry(packetSentToPeer)
attr title "packets sent: without retry, vector(packetBytes)"
vector 401 Scenario.node[15].wlan[0].mac.dcf.channelAccess.inProgressFrames queueingTime:vector ETV
attr interpolationmode none
attr source queueingTime(packetDequeued)
attr title "queueing times, vector"
vector 402 Scenario.node[8].wlan[0].mac packetDrop:vector(packetBytes) ETV
attr interpolationmode none
attr source packetDropped
attr title "packet drops, vector(packetBytes)"
vector 403 Scenario.node[8].wlan[0].mac packetDropIncorrectlyReceived:vector(packetBytes) ETV
attr interpolationmode none
attr source packetDropReasonIsIncorrectlyReceived(packetDropped)
attr title "packet drops: incorrectly received, vector(packetBytes)"
vector 404 Scenario.node[4].wlan[0].mac packetDrop:vector(packetBytes) ETV
attr interpolationmode none
attr source packetDropped
attr title "packet drops, vector(packetBytes)"
vector 405 Scenario.node[4].wlan[0].mac packetDropIncorrectlyReceived:vector(packetBytes) ETV
attr interpolationmode none
attr source packetDropReasonIsIncorrectlyReceived(packetDropped)
attr title "packet drops: incorrectly received, vector(packetBytes)"
[...]
1327	7104	59.9	0
1327	7104	60	0
1328	7104	0.1	0
1328	7104	0.2	0
1328	7104	0.3	0
1328	7104	0.4	0
1328	7104	0.5	0
1328	7104	0.6	0
1328	7104	0.7	0
1328	7104	0.8	0
1328	7104	0.9	0
1328	7104	1	0
1328	7104	1.1	0
1328	7104	1.2	0
1328	7104	1.3	0
1328	7104	1.4	0
1328	7104	1.5	0
1328	7104	1.6	0
1328	7104	1.7	0
1328	7104	1.8	0
1328	7104	1.9	0
1328	7104	2	0
1328	7104	2.1	0
1328	7104	2.2	0
1328	7104	2.3	0
1328	7104	2.4	0
1328	7104	2.5	0
1328	7104	2.6	0
1328	7104	2.7	0
1328	7104	2.8	0
1328	7104	2.9	0
1328	7104	3	0
1328	7104	3.1	0
1328	7104	3.2	0
1328	7104	3.3	0
1328	7104	3.4	0
1328	7104	3.5	0
1328	7104	3.6	0
1328	7104	3.7	0
1328	7104	3.8	0
1328	7104	3.9	0
1328	7104	4	0
1328	7104	4.1	0
1328	7104	4.2	0
1328	7104	4.3	0
1328	7104	4.4	0
1328	7104	4.5	0
1328	7104	4.6	0
1328	7104	4.7	0
1328	7104	4.8	0
1328	7104	4.9	0
1328	7104	5	0
1328	7104	5.1	0
1328	7104	5.2	0
1328	7104	5.3	0
1328	7104	5.4	0
1328	7104	5.5	0
1328	7104	5.6	0
1328	7104	5.7	0
1328	7104	5.8	0
1328	7104	5.9	0
1328	7104	6	0
1328	7104	6.1	0
1328	7104	6.2	0
1328	7104	6.3	0
1328	7104	6.4	0
1328	7104	6.5	0
1328	7104	6.6	0
1328	7104	6.7	0
1328	7104	6.8	0
1328	7104	6.9	0
1328	7104	7	0
1328	7104	7.1	0
1328	7104	7.2	0
1328	7104	7.3	0
1328	7104	7.4	0
1328	7104	7.5	0
1328	7104	7.6	0
1328	7104	7.7	0
1328	7104	7.8	0
1328	7104	7.9	0
1328	7104	8	0
1328	7104	8.1	0
1328	7104	8.2	0
1328	7104	8.3	0
1328	7104	8.4	0
1328	7104	8.5	0
1328	7104	8.6	0
1328	7104	8.7	0
1328	7104	8.8	0
1328	7104	8.9	0
1328	7104	9	0
1328	7104	9.1	0
1328	7104	9.2	0
1328	7104	9.3	0
1328	7104	9.4	0
1328	7104	9.5	0
1328	7104	9.6	0
1328	7104	9.7	0
1328	7104	9.8	0
1328	7104	9.9	0
1328	7104	10	0
1328	7104	10.1	0
1328	7104	10.2	0
1328	7104	10.3	0
1328	7104	10.4	0
1328	7104	10.5	0
1328	7104	10.6	0
1328	7104	10.7	0
1328	7104	10.8	0
1328	7104	10.9	0
1328	7104	11	0
1328	7104	11.1	0
1328	7104	11.2	0
1328	7104	11.3	0
1328	7104	11.4	0
1328	7104	11.5	0
1328	7104	11.6	0
1328	7104	11.7	0
1328	7104	11.8	0
1328	7104	11.9	0
1328	7104	12	0
1328	7104	12.1	0
1328	7104	12.2	0
1328	7104	12.3	0
1328	7104	12.4	0
1328	7104	12.5	0
1328	7104	12.6	0
1328	7104	12.7	0
1328	7104	12.8	0
1328	7104	12.9	0
1328	7104	13	0
1328	7104	13.1	0
1328	7104	13.2	0
1328	7104	13.3	0
1328	7104	13.4	0
1328	7104	13.5	0
1328	7104	13.6	0
1328	7104	13.7	0
1328	7104	13.8	0
1328	7104	13.9	0
1328	7104	14	0
1328	7104	14.1	0
1328	7104	14.2	0
1328	7104	14.3	0
1328	7104	14.4	0
1328	7104	14.5	0
1328	7104	14.6	0
1328	7104	14.7	0
1328	7104	14.8	0
1328	7104	14.9	0
1328	7104	15	0
1328	7104	15.1	0
1328	7104	15.2	0
1328	7104	15.3	0
1328	7104	15.4	0
1328	7104	15.5	0
1328	7104	15.6	0
1328	7104	15.7	0
1328	7104	15.8	0
1328	7104	15.9	0
1328	7104	16	0
1328	7104	16.1	0
1328	7104	16.2	0
1328	7104	16.3	0
1328	7104	16.4	0
1328	7104	16.5	0
1328	7104	16.6	0
1328	7104	16.7	0
1328	7104	16.8	0
1328	7104	16.9	0
1328	7104	17	0
1328	7104	17.1	0
1328	7104	17.2	0
1328	7104	17.3	0
1328	7104	17.4	0
1328	7104	17.5	0
1328	7104	17.6	0
1328	7104	17.7	0
1328	7104	17.8	0
1328	7104	17.9	0
1328	7104	18	0
1328	7104	18.1	0
1328	7104	18.2	0
1328	7104	18.3	0
1328	7104	18.4	0
1328	7104	18.5	0
1328	7104	18.6	0
1328	7104	18.7	0
1328	7104	18.8	0
1328	7104	18.9	0
1328	7104	19	0
1328	7104	19.1	0
1328	7104	19.2	0
1328	7104	19.3	0
1328	7104	19.4	0
1328	7104	19.5	0
1328	7104	19.6	0
1328	7104	19.7	0
1328	7104	19.8	0
1328	7104	19.9	0
1328	7104	20	0
1328	7104	20.1	0
1328	7104	20.2	0
1328	7104	20.3	0
1328	7104	20.4	0
1328	7104	20.5	0
1328	7104	20.6	0
1328	7104	20.7	0
1328	7104	20.8	0
1328	7104	20.9	0
1328	7104	21	0
1328	7104	21.1	0
1328	7104	21.2	0
1328	7104	21.3	0
1328	7104	21.4	0
1328	7104	21.5	0
1328	7104	21.6	0
1328	7104	21.7	0
1328	7104	21.8	0
1328	7104	21.9	0
1328	7104	22	0
1328	7104	22.1	0
1328	7104	22.2	0
1328	7104	22.3	0
1328	7104	22.4	0
1328	7104	22.5	0
1328	7104	22.6	0
1328	7104	22.7	0
1328	7104	22.8	0
1328	7104	22.9	0
1328	7104	23	0
1328	7104	23.1	0
1328	7104	23.2	0
1328	7104	23.3	0
1328	7104	23.4	0
1328	7104	23.5	0
1328	7104	23.6	0
1328	7104	23.7	0
1328	7104	23.8	0
1328	7104	23.9	0
1328	7104	24	0
1328	7104	24.1	0
1328	7104	24.2	0
1328	7104	24.3	0
1328	7104	24.4	0
1328	7104	24.5	0
1328	7104	24.6	0
1328	7104	24.7	0
1328	7104	24.8	0
1328	7104	24.9	0
1328	7104	25	0
1328	7104	25.1	0
1328	7104	25.2	0
1328	7104	25.3	0
1328	7104	25.4	0
1328	7104	25.5	0
1328	7104	25.6	0
1328	7104	25.7	0
1328	7104	25.8	0
1328	7104	25.9	0
1328	7104	26	0
1328	7104	26.1	0
1328	7104	26.2	0
1328	7104	26.3	0
1328	7104	26.4	0
1328	7104	26.5	0
1328	7104	26.6	0
1328	7104	26.7	0
1328	7104	26.8	0
1328	7104	26.9	0
1328	7104	27	0
1328	7104	27.1	0
1328	7104	27.2	0
1328	7104	27.3	0
1328	7104	27.4	0
1328	7104	27.5	0
1328	7104	27.6	0
1328	7104	27.7	0
1328	7104	27.8	0
1328	7104	27.9	0
1328	7104	28	0
1328	7104	28.1	0
1328	7104	28.2	0
1328	7104	28.3	0
1328	7104	28.4	0
1328	7104	28.5	0
1328	7104	28.6	0
1328	7104	28.7	0
1328	7104	28.8	0
1328	7104	28.9	0
1328	7104	29	0
1328	7104	29.1	0
1328	7104	29.2	0
1328	7104	29.3	0
1328	7104	29.4	0
1328	7104	29.5	0
1328	7104	29.6	0
1328	7104	29.7	0
1328	7104	29.8	0
1328	7104	29.9	0
1328	7104	30	0
1328	7104	30.1	0
1328	7104	30.2	0
1328	7104	30.3	0
1328	7104	30.4	0
1328	7104	30.5	0
1328	7104	30.6	0
1328	7104	30.7	0
1328	7104	30.8	0
1328	7104	30.9	0
1328	7104	31	0
1328	7104	31.1	0
1328	7104	31.2	0
1328	7104	31.3	0
1328	7104	31.4	0
1328	7104	31.5	0
1328	7104	31.6	0
1328	7104	31.7	0
1328	7104	31.8	0
1328	7104	31.9	0
1328	7104	32	0
1328	7104	32.1	0
1328	7104	32.2	0
1328	7104	32.3	0
1328	7104	32.4	0
1328	7104	32.5	0
1328	7104	32.6	0
1328	7104	32.7	0
1328	7104	32.8	0
1328	7104	32.9	0
1328	7104	33	0
1328	7104	33.1	0
1328	7104	33.2	0
1328	7104	33.3	0
1328	7104	33.4	0
1328	7104	33.5	0
1328	7104	33.6	0
1328	7104	33.7	0
1328	7104	33.8	0
1328	7104	33.9	0
1328	7104	34	0
1328	7104	34.1	0
1328	7104	34.2	0
1328	7104	34.3	0
1328	7104	34.4	0
1328	7104	34.5	0
1328	7104	34.6	0
1328	7104	34.7	0
1328	7104	34.8	0
1328	7104	34.9	0
1328	7104	35	0
1328	7104	35.1	0
1328	7104	35.2	0
1328	7104	35.3	0
1328	7104	35.4	0
1328	7104	35.5	0
1328	7104	35.6	0
1328	7104	35.7	0
1328	7104	35.8	0
1328	7104	35.9	0
1328	7104	36	0
1328	7104	36.1	0
1328	7104	36.2	0
1328	7104	36.3	0
1328	7104	36.4	0
1328	7104	36.5	0
1328	7104	36.6	0
1328	7104	36.7	0
1328	7104	36.8	0
1328	7104	36.9	0
1328	7104	37	0
1328	7104	37.1	0
1328	7104	37.2	0
1328	7104	37.3	0
1328	7104	37.4	0
1328	7104	37.5	0
1328	7104	37.6	0
1328	7104	37.7	0
1328	7104	37.8	0
1328	7104	37.9	0
1328	7104	38	0
1328	7104	38.1	0
1328	7104	38.2	0
1328	7104	38.3	0
1328	7104	38.4	0
1328	7104	38.5	0
1328	7104	38.6	0
1328	7104	38.7	0
1328	7104	38.8	0
1328	7104	38.9	0
1328	7104	39	0
1328	7104	39.1	0
1328	7104	39.2	0
1328	7104	39.3	0
1328	7104	39.4	0
1328	7104	39.5	0
1328	7104	39.6	0
1328	7104	39.7	0
1328	7104	39.8	0
1328	7104	39.9	0
1328	7104	40	0
1328	7104	40.1	0
1328	7104	40.2	0
1328	7104	40.3	0
1328	7104	40.4	0
1328	7104	40.5	0
1328	7104	40.6	0
1328	7104	40.7	0
1328	7104	40.8	0
1328	7104	40.9	0
1328	7104	41	0
1328	7104	41.1	0
1328	7104	41.2	0
1328	7104	41.3	0
1328	7104	41.4	0
1328	7104	41.5	0
1328	7104	41.6	0
1328	7104	41.7	0
1328	7104	41.8	0
1328	7104	41.9	0
1328	7104	42	0
1328	7104	42.1	0
1328	7104	42.2	0
1328	7104	42.3	0
1328	7104	42.4	0
1328	7104	42.5	0
1328	7104	42.6	0
1328	7104	42.7	0
1328	7104	42.8	0
1328	7104	42.9	0
1328	7104	43	0
1328	7104	43.1	0
1328	7104	43.2	0
1328	7104	43.3	0
1328	7104	43.4	0
1328	7104	43.5	0
1328	7104	43.6	0
1328	7104	43.7	0
1328	7104	43.8	0
1328	7104	43.9	0
1328	7104	44	0
1328	7104	44.1	0
1328	7104	44.2	0
1328	7104	44.3	0
1328	7104	44.4	0
1328	7104	44.5	0
1328	7104	44.6	0
1328	7104	44.7	0
1328	7104	44.8	0
1328	7104	44.9	0
1328	7104	45	0
1328	7104	45.1	0
1328	7104	45.2	0
1328	7104	45.3	0
1328	7104	45.4	0
1328	7104	45.5	0
1328	7104	45.6	0
1328	7104	45.7	0
1328	7104	45.8	0
1328	7104	45.9	0
1328	7104	46	0
1328	7104	46.1	0
1328	7104	46.2	0
1328	7104	46.3	0
1328	7104	46.4	0
1328	7104	46.5	0
1328	7104	46.6	0
1328	7104	46.7	0
1328	7104	46.8	0
1328	7104	46.9	0
1328	7104	47	0
1328	7104	47.1	0
1328	7104	47.2	0
1328	7104	47.3	0
1328	7104	47.4	0
1328	7104	47.5	0
1328	7104	47.6	0
1328	7104	47.7	0
1328	7104	47.8	0
1328	7104	47.9	0
1328	7104	48	0
1328	7104	48.1	0
1328	7104	48.2	0
1328	7104	48.3	0
1328	7104	48.4	0
1328	7104	48.5	0
1328	7104	48.6	0
1328	7104	48.7	0
1328	7104	48.8	0
1328	7104	48.9	0
1328	7104	49	0
1328	7104	49.1	0
1328	7104	49.2	0
1328	7104	49.3	0
1328	7104	49.4	0
1328	7104	49.5	0
1328	7104	49.6	0
1328	7104	49.7	0
1328	7104	49.8	0
1328	7104	49.9	0
1328	7104	50	0
1328	7104	50.1	0
1328	7104	50.2	0
1328	7104	50.3	0
1328	7104	50.4	0
1328	7104	50.5	0
1328	7104	50.6	0
1328	7104	50.7	0
1328	7104	50.8	0
1328	7104	50.9	0
1328	7104	51	0
1328	7104	51.1	0
1328	7104	51.2	0
1328	7104	51.3	0
1328	7104	51.4	0
1328	7104	51.5	0
1328	7104	51.6	0
1328	7104	51.7	0
1328	7104	51.8	0
1328	7104	51.9	0
1328	7104	52	0
1328	7104	52.1	0
1328	7104	52.2	0
1328	7104	52.3	0
1328	7104	52.4	0
1328	7104	52.5	0
1328	7104	52.6	0
1328	7104	52.7	0
1328	7104	52.8	0
1328	7104	52.9	0
1328	7104	53	0
1328	7104	53.1	0
1328	7104	53.2	0
1328	7104	53.3	0
1328	7104	53.4	0
1328	7104	53.5	0
1328	7104	53.6	0
1328	7104	53.7	0
1328	7104	53.8	0
1328	7104	53.9	0
1328	7104	54	0
1328	7104	54.1	0
1328	7104	54.2	0
1328	7104	54.3	0
1328	7104	54.4	0
1328	7104	54.5	0
1328	7104	54.6	0
1328	7104	54.7	0
1328	7104	54.8	0
1328	7104	54.9	0
1328	7104	55	0
1328	7104	55.1	0
1328	7104	55.2	0
1328	7104	55.3	0
1328	7104	55.4	0
1328	7104	55.5	0
1328	7104	55.6	0
1328	7104	55.7	0
1328	7104	55.8	0
1328	7104	55.9	0
1328	7104	56	0
1328	7104	56.1	0
1328	7104	56.2	0
1328	7104	56.3	0
1328	7104	56.4	0
1328	7104	56.5	0
1328	7104	56.6	0
1328	7104	56.7	0
1328	7104	56.8	0
1328	7104	56.9	0
1328	7104	57	0
1328	7104	57.1	0
1328	7104	57.2	0
1328	7104	57.3	0
1328	7104	57.4	0
1328	7104	57.5	0
1328	7104	57.6	0
1328	7104	57.7	0
1328	7104	57.8	0
1328	7104	57.9	0
1328	7104	58	0
1328	7104	58.1	0
1328	7104	58.2	0
1328	7104	58.3	0
1328	7104	58.4	0
1328	7104	58.5	0
1328	7104	58.6	0
1328	7104	58.7	0
1328	7104	58.8	0
1328	7104	58.9	0
1328	7104	59	0
1328	7104	59.1	0
1328	7104	59.2	0
1328	7104	59.3	0
1328	7104	59.4	0
1328	7104	59.5	0
1328	7104	59.6	0
1328	7104	59.7	0
1328	7104	59.8	0
1328	7104	59.9	0
1328	7104	60	0
1329	7104	0.1	0
1329	7104	0.2	0
1329	7104	0.3	0
1329	7104	0.4	0
1329	7104	0.5	0
1329	7104	0.6	0
1329	7104	0.7	0
1329	7104	0.8	0
1329	7104	0.9	0
1329	7104	1	0
1329	7104	1.1	0
1329	7104	1.2	0
1329	7104	1.3	0
1329	7104	1.4	0
1329	7104	1.5	0
1329	7104	1.6	0
1329	7104	1.7	0
1329	7104	1.8	0
1329	7104	1.9	0
1329	7104	2	0
1329	7104	2.1	0
1329	7104	2.2	0
1329	7104	2.3	0
1329	7104	2.4	0
1329	7104	2.5	0
1329	7104	2.6	0
1329	7104	2.7	0
1329	7104	2.8	0
1329	7104	2.9	0
1329	7104	3	0
1329	7104	3.1	0
1329	7104	3.2	0
1329	7104	3.3	0
1329	7104	3.4	0
1329	7104	3.5	0
1329	7104	3.6	0
1329	7104	3.7	0
1329	7104	3.8	0
1329	7104	3.9	0
1329	7104	4	0
1329	7104	4.1	0
1329	7104	4.2	0
1329	7104	4.3	0
1329	7104	4.4	0
1329	7104	4.5	0
1329	7104	4.6	0
1329	7104	4.7	0
1329	7104	4.8	0
1329	7104	4.9	0
1329	7104	5	0
1329	7104	5.1	0
1329	7104	5.2	0
1329	7104	5.3	0
1329	7104	5.4	0
1329	7104	5.5	0
1329	7104	5.6	0
1329	7104	5.7	0
1329	7104	5.8	0
1329	7104	5.9	0
1329	7104	6	0
1329	7104	6.1	0
1329	7104	6.2	0
1329	7104	6.3	0
1329	7104	6.4	0
1329	7104	6.5	0
1329	7104	6.6	0
1329	7104	6.7	0
1329	7104	6.8	0
1329	7104	6.9	0
1329	7104	7	0
1329	7104	7.1	0
1329	7104	7.2	0
1329	7104	7.3	0
1329	7104	7.4	0
1329	7104	7.5	0
1329	7104	7.6	0
1329	7104	7.7	0
1329	7104	7.8	0
1329	7104	7.9	0
1329	7104	8	0
1329	7104	8.1	0
1329	7104	8.2	0
1329	7104	8.3	0
1329	7104	8.4	0
1329	7104	8.5	0
1329	7104	8.6	0
1329	7104	8.7	0
1329	7104	8.8	0
1329	7104	8.9	0
1329	7104	9	0
1329	7104	9.1	0
1329	7104	9.2	0
1329	7104	9.3	0
1329	7104	9.4	0
1329	7104	9.5	0
1329	7104	9.6	0
1329	7104	9.7	0
1329	7104	9.8	0
1329	7104	9.9	0
1329	7104	10	0
1329	7104	10.1	0
1329	7104	10.2	0
1329	7104	10.3	0
1329	7104	10.4	0
1329	7104	10.5	0
1329	7104	10.6	0
1329	7104	10.7	0
1329	7104	10.8	0
1329	7104	10.9	0
1329	7104	11	0
1329	7104	11.1	0
1329	7104	11.2	0
1329	7104	11.3	0
1329	7104	11.4	0
1329	7104	11.5	0
1329	7104	11.6	0
1329	7104	11.7	0
1329	7104	11.8	0
1329	7104	11.9	0
1329	7104	12	0
1329	7104	12.1	0
1329	7104	12.2	0
1329	7104	12.3	0
1329	7104	12.4	0
1329	7104	12.5	0
1329	7104	12.6	0
1329	7104	12.7	0
1329	7104	12.8	0
1329	7104	12.9	0
1329	7104	13	0
1329	7104	13.1	0
1329	7104	13.2	0
1329	7104	13.3	0
1329	7104	13.4	0
1329	7104	13.5	0
1329	7104	13.6	0
1329	7104	13.7	0
1329	7104	13.8	0
1329	7104	13.9	0
1329	7104	14	0
1329	7104	14.1	0
1329	7104	14.2	0
1329	7104	14.3	0
1329	7104	14.4	0
1329	7104	14.5	0
1329	7104	14.6	0
1329	7104	14.7	0
1329	7104	14.8	0
1329	7104	14.9	0
1329	7104	15	0
1329	7104	15.1	0
1329	7104	15.2	0
1329	7104	15.3	0
1329	7104	15.4	0
1329	7104	15.5	0
1329	7104	15.6	0
1329	7104	15.7	0
1329	7104	15.8	0
1329	7104	15.9	0
1329	7104	16	0
1329	7104	16.1	0
1329	7104	16.2	0
1329	7104	16.3	0
1329	7104	16.4	0
1329	7104	16.5	0
1329	7104	16.6	0
1329	7104	16.7	0
1329	7104	16.8	0
1329	7104	16.9	0
1329	7104	17	0
1329	7104	17.1	0
1329	7104	17.2	0
1329	7104	17.3	0
1329	7104	17.4	0
1329	7104	17.5	0
1329	7104	17.6	0
1329	7104	17.7	0
1329	7104	17.8	0
1329	7104	17.9	0
1329	7104	18	0
1329	7104	18.1	0
1329	7104	18.2	0
1329	7104	18.3	0
1329	7104	18.4	0
1329	7104	18.5	0
1329	7104	18.6	0
1329	7104	18.7	0
1329	7104	18.8	0
1329	7104	18.9	0
1329	7104	19	0
1329	7104	19.1	0
1329	7104	19.2	0
1329	7104	19.3	0
1329	7104	19.4	0
1329	7104	19.5	0
1329	7104	19.6	0
1329	7104	19.7	0
1329	7104	19.8	0
1329	7104	19.9	0
1329	7104	20	0
1329	7104	20.1	0
1329	7104	20.2	0
1329	7104	20.3	0
1329	7104	20.4	0
1329	7104	20.5	0
1329	7104	20.6	0
1329	7104	20.7	0
1329	7104	20.8	0
1329	7104	20.9	0
1329	7104	21	0
1329	7104	21.1	0
1329	7104	21.2	0
1329	7104	21.3	0
1329	7104	21.4	0
1329	7104	21.5	0
1329	7104	21.6	0
1329	7104	21.7	0
1329	7104	21.8	0
1329	7104	21.9	0
1329	7104	22	0
1329	7104	22.1	0
1329	7104	22.2	0
1329	7104	22.3	0
1329	7104	22.4	0
1329	7104	22.5	0
1329	7104	22.6	0
1329	7104	22.7	0
1329	7104	22.8	0
1329	7104	22.9	0
1329	7104	23	0
1329	7104	23.1	0
1329	7104	23.2	0
1329	7104	23.3	0
1329	7104	23.4	0
1329	7104	23.5	0
1329	7104	23.6	0
1329	7104	23.7	0
1329	7104	23.8	0
1329	7104	23.9	0
1329	7104	24	0
1329	7104	24.1	0
1329	7104	24.2	0
1329	7104	24.3	0
1329	7104	24.4	0
1329	7104	24.5	0
1329	7104	24.6	0
1329	7104	24.7	0
1329	7104	24.8	0
1329	7104	24.9	0
1329	7104	25	0
1329	7104	25.1	0
1329	7104	25.2	0
1329	7104	25.3	0
1329	7104	25.4	0
1329	7104	25.5	0
1329	7104	25.6	0
1329	7104	25.7	0
1329	7104	25.8	0
1329	7104	25.9	0
1329	7104	26	0
1329	7104	26.1	0
1329	7104	26.2	0
1329	7104	26.3	0
1329	7104	26.4	0
1329	7104	26.5	0
1329	7104	26.6	0
1329	7104	26.7	0
1329	7104	26.8	0
1329	7104	26.9	0
1329	7104	27	0
1329	7104	27.1	0
1329	7104	27.2	0
1329	7104	27.3	0
1329	7104	27.4	0
1329	7104	27.5	0
1329	7104	27.6	0
1329	7104	27.7	0
1329	7104	27.8	0
1329	7104	27.9	0
1329	7104	28	0
1329	7104	28.1	0
1329	7104	28.2	0
1329	7104	28.3	0
1329	7104	28.4	0
1329	7104	28.5	0
1329	7104	28.6	0
1329	7104	28.7	0
1329	7104	28.8	0
1329	7104	28.9	0
1329	7104	29	0
1329	7104	29.1	0
1329	7104	29.2	0
1329	7104	29.3	0
1329	7104	29.4	0
1329	7104	29.5	0
1329	7104	29.6	0
1329	7104	29.7	0
1329	7104	29.8	0
1329	7104	29.9	0
1329	7104	30	0
1329	7104	30.1	0
1329	7104	30.2	0
1329	7104	30.3	0
1329	7104	30.4	0
1329	7104	30.5	0
1329	7104	30.6	0
1329	7104	30.7	0
1329	7104	30.8	0
1329	7104	30.9	0
1329	7104	31	0
1329	7104	31.1	0
1329	7104	31.2	0
1329	7104	31.3	0
1329	7104	31.4	0
1329	7104	31.5	0
1329	7104	31.6	0
1329	7104	31.7	0
1329	7104	31.8	0
1329	7104	31.9	0
1329	7104	32	0
1329	7104	32.1	0
1329	7104	32.2	0
1329	7104	32.3	0
1329	7104	32.4	0
1329	7104	32.5	0
1329	7104	32.6	0
1329	7104	32.7	0
1329	7104	32.8	0
1329	7104	32.9	0
1329	7104	33	0
1329	7104	33.1	0
1329	7104	33.2	0
1329	7104	33.3	0
1329	7104	33.4	0
1329	7104	33.5	0
1329	7104	33.6	0
1329	7104	33.7	0
1329	7104	33.8	0
1329	7104	33.9	0
1329	7104	34	0
1329	7104	34.1	0
1329	7104	34.2	0
1329	7104	34.3	0
1329	7104	34.4	0
1329	7104	34.5	0
1329	7104	34.6	0
1329	7104	34.7	0
1329	7104	34.8	0
1329	7104	34.9	0
1329	7104	35	0
1329	7104	35.1	0
1329	7104	35.2	0
1329	7104	35.3	0
1329	7104	35.4	0
1329	7104	35.5	0
1329	7104	35.6	0
1329	7104	35.7	0
1329	7104	35.8	0
1329	7104	35.9	0
1329	7104	36	0
1329	7104	36.1	0
1329	7104	36.2	0
1329	7104	36.3	0
1329	7104	36.4	0
1329	7104	36.5	0
1329	7104	36.6	0
1329	7104	36.7	0
1329	7104	36.8	0
1329	7104	36.9	0
1329	7104	37	0
1329	7104	37.1	0
1329	7104	37.2	0
1329	7104	37.3	0
1329	7104	37.4	0
1329	7104	37.5	0
1329	7104	37.6	0
1329	7104	37.7	0
1329	7104	37.8	0
1329	7104	37.9	0
1329	7104	38	0
1329	7104	38.1	0
1329	7104	38.2	0
1329	7104	38.3	0
1329	7104	38.4	0
1329	7104	38.5	0
1329	7104	38.6	0
1329	7104	38.7	0
1329	7104	38.8	0
1329	7104	38.9	0
1329	7104	39	0
1329	7104	39.1	0
1329	7104	39.2	0
1329	7104	39.3	0
1329	7104	39.4	0
1329	7104	39.5	0
1329	7104	39.6	0
1329	7104	39.7	0
1329	7104	39.8	0
1329	7104	39.9	0
1329	7104	40	0
1329	7104	40.1	0
1329	7104	40.2	0
1329	7104	40.3	0
1329	7104	40.4	0
1329	7104	40.5	0
1329	7104	40.6	0
1329	7104	40.7	0
1329	7104	40.8	0
1329	7104	40.9	0
1329	7104	41	0
1329	7104	41.1	0
1329	7104	41.2	0
1329	7104	41.3	0
1329	7104	41.4	0
1329	7104	41.5	0
1329	7104	41.6	0
1329	7104	41.7	0
1329	7104	41.8	0
1329	7104	41.9	0
1329	7104	42	0
1329	7104	42.1	0
1329	7104	42.2	0
1329	7104	42.3	0
1329	7104	42.4	0
1329	7104	42.5	0
1329	7104	42.6	0
1329	7104	42.7	0
1329	7104	42.8	0
1329	7104	42.9	0
1329	7104	43	0
1329	7104	43.1	0
1329	7104	43.2	0
1329	7104	43.3	0
1329	7104	43.4	0
1329	7104	43.5	0
1329	7104	43.6	0
1329	7104	43.7	0
1329	7104	43.8	0
1329	7104	43.9	0
1329	7104	44	0
1329	7104	44.1	0
1329	7104	44.2	0
1329	7104	44.3	0
1329	7104	44.4	0
1329	7104	44.5	0
1329	7104	44.6	0
1329	7104	44.7	0
1329	7104	44.8	0
1329	7104	44.9	0
1329	7104	45	0
1329	7104	45.1	0
1329	7104	45.2	0
1329	7104	45.3	0
1329	7104	45.4	0
1329	7104	45.5	0
1329	7104	45.6	0
1329	7104	45.7	0
1329	7104	45.8	0
1329	7104	45.9	0
1329	7104	46	0
1329	7104	46.1	0
1329	7104	46.2	0
1329	7104	46.3	0
1329	7104	46.4	0
1329	7104	46.5	0
1329	7104	46.6	0
1329	7104	46.7	0
1329	7104	46.8	0
1329	7104	46.9	0
1329	7104	47	0
1329	7104	47.1	0
1329	7104	47.2	0
1329	7104	47.3	0
1329	7104	47.4	0
1329	7104	47.5	0
1329	7104	47.6	0
1329	7104	47.7	0
1329	7104	47.8	0
1329	7104	47.9	0
1329	7104	48	0
1329	7104	48.1	0
1329	7104	48.2	0
1329	7104	48.3	0
1329	7104	48.4	0
1329	7104	48.5	0
1329	7104	48.6	0
1329	7104	48.7	0
1329	7104	48.8	0
1329	7104	48.9	0
1329	7104	49	0
1329	7104	49.1	0
1329	7104	49.2	0
1329	7104	49.3	0
1329	7104	49.4	0
1329	7104	49.5	0
1329	7104	49.6	0
1329	7104	49.7	0
1329	7104	49.8	0
1329	7104	49.9	0
1329	7104	50	0
1329	7104	50.1	0
1329	7104	50.2	0
1329	7104	50.3	0
1329	7104	50.4	0
1329	7104	50.5	0
1329	7104	50.6	0
1329	7104	50.7	0
1329	7104	50.8	0
1329	7104	50.9	0
1329	7104	51	0
1329	7104	51.1	0
1329	7104	51.2	0
1329	7104	51.3	0
1329	7104	51.4	0
1329	7104	51.5	0
1329	7104	51.6	0
1329	7104	51.7	0
1329	7104	51.8	0
1329	7104	51.9	0
1329	7104	52	0
1329	7104	52.1	0
1329	7104	52.2	0
1329	7104	52.3	0
1329	7104	52.4	0
1329	7104	52.5	0
1329	7104	52.6	0
1329	7104	52.7	0
1329	7104	52.8	0
1329	7104	52.9	0
1329	7104	53	0
1329	7104	53.1	0
1329	7104	53.2	0
1329	7104	53.3	0
1329	7104	53.4	0
1329	7104	53.5	0
1329	7104	53.6	0
1329	7104	53.7	0
1329	7104	53.8	0
1329	7104	53.9	0
1329	7104	54	0
1329	7104	54.1	0
1329	7104	54.2	0
1329	7104	54.3	0
1329	7104	54.4	0
1329	7104	54.5	0
1329	7104	54.6	0
1329	7104	54.7	0
1329	7104	54.8	0
1329	7104	54.9	0
1329	7104	55	0
1329	7104	55.1	0
1329	7104	55.2	0
1329	7104	55.3	0
1329	7104	55.4	0
1329	7104	55.5	0
1329	7104	55.6	0
1329	7104	55.7	0
1329	7104	55.8	0
1329	7104	55.9	0
1329	7104	56	0
1329	7104	56.1	0
1329	7104	56.2	0
1329	7104	56.3	0
1329	7104	56.4	0
1329	7104	56.5	0
1329	7104	56.6	0
1329	7104	56.7	0
1329	7104	56.8	0
1329	7104	56.9	0
1329	7104	57	0
1329	7104	57.1	0
1329	7104	57.2	0
1329	7104	57.3	0
1329	7104	57.4	0
1329	7104	57.5	0
1329	7104	57.6	0
1329	7104	57.7	0
1329	7104	57.8	0
1329	7104	57.9	0
1329	7104	58	0
1329	7104	58.1	0
1329	7104	58.2	0
1329	7104	58.3	0
1329	7104	58.4	0
1329	7104	58.5	0
1329	7104	58.6	0
1329	7104	58.7	0
1329	7104	58.8	0
1329	7104	58.9	0
1329	7104	59	0
1329	7104	59.1	0
1329	7104	59.2	0
1329	7104	59.3	0
1329	7104	59.4	0
1329	7104	59.5	0
1329	7104	59.6	0
1329	7104	59.7	0
1329	7104	59.8	0
1329	7104	59.9	0
1329	7104	60	0

